CAT-17i
                    3D
 Schrodinger Suite 2022-3.
 45 48  0  0  1  0  0  0  0  0999 V2000
   15.2540    4.1110    0.9660 C   0  0  0  0  0  0  0  0  0  0  0  0
   14.9670    3.5010   -0.3650 C   0  0  0  0  0  0  0  0  0  0  0  0
   14.2560    4.2080   -1.3640 C   0  0  0  0  0  0  0  0  0  0  0  0
   13.9780    3.6840   -2.5830 N   0  0  0  0  0  0  0  0  0  0  0  0
   14.3990    2.4250   -2.8630 C   0  0  0  0  0  0  0  0  0  0  0  0
   15.0990    1.6440   -1.9220 C   0  0  0  0  0  0  0  0  0  0  0  0
   15.5210    0.2620   -2.2320 C   0  0  0  0  0  0  0  0  0  0  0  0
   16.4380   -0.0040   -3.2650 C   0  0  0  0  0  0  0  0  0  0  0  0
   16.8680   -1.3110   -3.4940 C   0  0  0  0  0  0  0  0  0  0  0  0
   16.3780   -2.3700   -2.7200 C   0  0  0  0  0  0  0  0  0  0  0  0
   15.4330   -2.1170   -1.7220 C   0  0  0  0  0  0  0  0  0  0  0  0
   14.8520   -3.2360   -0.8790 C   0  0  1  0  0  0  0  0  0  0  0  0
   15.0910   -4.6440   -1.3960 C   0  0  0  0  0  0  0  0  0  0  0  0
   16.3010   -5.4570   -0.9600 C   0  0  0  0  0  0  0  0  0  0  0  0
   14.9190   -5.8600   -0.4950 C   0  0  0  0  0  0  0  0  0  0  0  0
   15.3110   -3.0180    0.5420 N   0  3  0  0  0  0  0  0  0  0  0  0
   14.2520   -2.8200    1.4060 C   0  0  0  0  0  0  0  0  0  0  0  0
   14.3820   -2.7030    2.7590 N   0  0  0  0  0  0  0  0  0  0  0  0
   13.0450   -2.8620    0.6930 N   0  0  0  0  0  0  0  0  0  0  0  0
   11.7740   -2.4420    1.3170 C   0  0  0  0  0  0  0  0  0  0  0  0
   13.2990   -3.0600   -0.7440 C   0  0  0  0  0  0  0  0  0  0  0  0
   12.4220   -3.0820   -1.5470 O   0  0  0  0  0  0  0  0  0  0  0  0
   15.0160   -0.7980   -1.4700 C   0  0  0  0  0  0  0  0  0  0  0  0
   15.3810    2.1980   -0.6650 C   0  0  0  0  0  0  0  0  0  0  0  0
   14.5160    3.7460    1.7200 H   0  0  0  0  0  0  0  0  0  0  0  0
   16.2710    3.8170    1.3260 H   0  0  0  0  0  0  0  0  0  0  0  0
   15.1960    5.2260    0.9300 H   0  0  0  0  0  0  0  0  0  0  0  0
   13.8890    5.2300   -1.1750 H   0  0  0  0  0  0  0  0  0  0  0  0
   14.1640    2.0240   -3.8620 H   0  0  0  0  0  0  0  0  0  0  0  0
   16.8250    0.8130   -3.8810 H   0  0  0  0  0  0  0  0  0  0  0  0
   17.6050   -1.5160   -4.2780 H   0  0  0  0  0  0  0  0  0  0  0  0
   16.7420   -3.3850   -2.8930 H   0  0  0  0  0  0  0  0  0  0  0  0
   14.7620   -4.7360   -2.4490 H   0  0  0  0  0  0  0  0  0  0  0  0
   16.8100   -6.0720   -1.7160 H   0  0  0  0  0  0  0  0  0  0  0  0
   17.0030   -5.0120   -0.2420 H   0  0  0  0  0  0  0  0  0  0  0  0
   14.6400   -5.7130    0.5560 H   0  0  0  0  0  0  0  0  0  0  0  0
   14.4550   -6.7620   -0.9250 H   0  0  0  0  0  0  0  0  0  0  0  0
   16.2790   -3.2240    0.8930 H   0  0  0  0  0  0  0  0  0  0  0  0
   13.6570   -2.2090    3.3370 H   0  0  0  0  0  0  0  0  0  0  0  0
   10.9190   -2.6880    0.6320 H   0  0  0  0  0  0  0  0  0  0  0  0
   11.6280   -2.9870    2.2890 H   0  0  0  0  0  0  0  0  0  0  0  0
   11.8090   -1.3370    1.5100 H   0  0  0  0  0  0  0  0  0  0  0  0
   14.3060   -0.5960   -0.6690 H   0  0  0  0  0  0  0  0  0  0  0  0
   15.9140    1.6000    0.0750 H   0  0  0  0  0  0  0  0  0  0  0  0
   15.3540   -2.5930    3.1590 H   0  0  0  0  0  0  0  0  0  0  0  0
  1  2  1  0  0  0  0
  1 25  1  0  0  0  0
  1 26  1  0  0  0  0
  1 27  1  0  0  0  0
  2  3  2  0  0  0  0
  2 24  1  0  0  0  0
  3  4  1  0  0  0  0
  3 28  1  0  0  0  0
  4  5  2  0  0  0  0
  5  6  1  0  0  0  0
  5 29  1  0  0  0  0
  6  7  1  0  0  0  0
  6 24  2  0  0  0  0
  7  8  2  0  0  0  0
  7 23  1  0  0  0  0
  8  9  1  0  0  0  0
  8 30  1  0  0  0  0
  9 10  2  0  0  0  0
  9 31  1  0  0  0  0
 10 11  1  0  0  0  0
 10 32  1  0  0  0  0
 11 12  1  0  0  0  0
 11 23  2  0  0  0  0
 12 13  1  0  0  0  0
 12 16  1  0  0  0  0
 12 21  1  0  0  0  0
 13 14  1  0  0  0  0
 13 15  1  0  0  0  0
 13 33  1  0  0  0  0
 14 15  1  0  0  0  0
 14 34  1  0  0  0  0
 14 35  1  0  0  0  0
 15 36  1  0  0  0  0
 15 37  1  0  0  0  0
 16 17  2  0  0  0  0
 16 38  1  0  0  0  0
 17 18  1  0  0  0  0
 17 19  1  0  0  0  0
 18 39  1  0  0  0  0
 18 45  1  0  0  0  0
 19 20  1  0  0  0  0
 19 21  1  0  0  0  0
 20 40  1  0  0  0  0
 20 41  1  0  0  0  0
 20 42  1  0  0  0  0
 21 22  2  0  0  0  0
 23 43  1  0  0  0  0
 24 44  1  0  0  0  0
M  CHG  1  16   1
M  END
$$$$
