18638-1
 OpenBabel02232411163D
Structure written by MMmdl.
 52 53  0  0  0  0  0  0  0  0999 V2000
   24.5840   10.6170   30.7500 C   0  0  0  0  0  0  0  0  0  0  0  0
   23.2830   11.1020   30.1490 C   0  0  0  0  0  0  0  0  0  0  0  0
   22.2140   11.1750   31.1670 O   0  0  0  0  0  0  0  0  0  0  0  0
   21.5830   10.0420   31.5510 C   0  0  0  0  0  0  0  0  0  0  0  0
   22.0260    8.8430   31.1050 N   0  0  0  0  0  0  0  0  0  0  0  0
   21.3030    7.7200   31.4740 C   0  0  0  0  0  0  0  0  0  0  0  0
   20.1690    7.7820   32.2770 C   0  0  0  0  0  0  0  0  0  0  0  0
   19.7080    9.0440   32.7370 C   0  0  0  0  0  0  0  0  0  0  0  0
   18.5630    9.1120   33.4900 N   0  0  0  0  0  0  0  0  0  0  0  0
   20.4370   10.2250   32.3830 C   0  0  0  0  0  0  0  0  0  0  0  0
   20.0580   11.5290   32.7660 C   0  0  0  0  0  0  0  0  0  0  0  0
   19.7920   12.6230   33.0450 N   0  0  0  0  0  0  0  0  0  0  0  0
   21.8440    6.5320   30.9220 N   0  0  0  0  0  0  0  0  0  0  0  0
   21.1790    5.2900   30.8500 C   0  0  0  0  0  0  0  0  0  0  0  0
   20.1140    5.0800   31.3910 O   0  0  0  0  0  0  0  0  0  0  0  0
   21.8690    4.2720   29.9580 C   0  0  0  0  0  0  0  0  0  0  0  0
   23.2560    3.8740   30.3650 C   0  0  0  0  0  0  0  0  0  0  0  0
   24.3840    4.5930   29.8660 C   0  0  0  0  0  0  0  0  0  0  0  0
   24.0350    5.7370   29.1500 O   0  0  0  0  0  0  0  0  0  0  0  0
   25.0460    6.7810   29.0680 C   0  0  0  0  0  0  0  0  0  0  0  0
   25.6770    4.1180   30.0360 C   0  0  0  0  0  0  0  0  0  0  0  0
   25.9140    2.9480   30.7850 C   0  0  0  0  0  0  0  0  0  0  0  0
   27.5600    2.3530   30.8520 S   0  0  0  0  0  0  0  0  0  0  0  0
   28.4600    3.3980   31.3960 O   0  0  0  0  0  0  0  0  0  0  0  0
   27.5840    1.1400   31.7050 O   0  0  0  0  0  0  0  0  0  0  0  0
   27.9600    1.9640   29.2080 C   0  0  0  0  0  0  0  0  0  0  0  0
   24.8200    2.3150   31.3930 C   0  0  0  0  0  0  0  0  0  0  0  0
   23.4900    2.7560   31.1460 C   0  0  0  0  0  0  0  0  0  0  0  0
   25.1330    1.2780   32.2280 O   0  0  0  0  0  0  0  0  0  0  0  0
   24.0400    0.5020   32.8000 C   0  0  0  0  0  0  0  0  0  0  0  0
   24.5140    9.5430   31.0470 H   0  0  0  0  0  0  0  0  0  0  0  0
   24.8680   11.2200   31.6370 H   0  0  0  0  0  0  0  0  0  0  0  0
   25.3960   10.7030   29.9850 H   0  0  0  0  0  0  0  0  0  0  0  0
   23.3260   12.1800   29.8600 H   0  0  0  0  0  0  0  0  0  0  0  0
   22.9420   10.4600   29.3070 H   0  0  0  0  0  0  0  0  0  0  0  0
   19.6130    6.8800   32.5420 H   0  0  0  0  0  0  0  0  0  0  0  0
   18.0400    8.2520   33.7440 H   0  0  0  0  0  0  0  0  0  0  0  0
   18.1760   10.0060   33.7920 H   0  0  0  0  0  0  0  0  0  0  0  0
   22.7420    6.6410   30.3930 H   0  0  0  0  0  0  0  0  0  0  0  0
   21.2300    3.3510   29.9110 H   0  0  0  0  0  0  0  0  0  0  0  0
   21.9140    4.7230   28.9240 H   0  0  0  0  0  0  0  0  0  0  0  0
   24.4390    7.6620   28.7570 H   0  0  0  0  0  0  0  0  0  0  0  0
   25.5230    6.9460   30.0580 H   0  0  0  0  0  0  0  0  0  0  0  0
   25.7890    6.4990   28.2920 H   0  0  0  0  0  0  0  0  0  0  0  0
   26.5130    4.6520   29.5690 H   0  0  0  0  0  0  0  0  0  0  0  0
   27.9570    2.8670   28.5400 H   0  0  0  0  0  0  0  0  0  0  0  0
   28.9770    1.5040   29.1100 H   0  0  0  0  0  0  0  0  0  0  0  0
   27.2330    1.2400   28.7550 H   0  0  0  0  0  0  0  0  0  0  0  0
   22.6440    2.1990   31.5510 H   0  0  0  0  0  0  0  0  0  0  0  0
   23.4440    0.0280   31.9900 H   0  0  0  0  0  0  0  0  0  0  0  0
   23.4200    1.1380   33.4680 H   0  0  0  0  0  0  0  0  0  0  0  0
   24.5950   -0.2690   33.3870 H   0  0  0  0  0  0  0  0  0  0  0  0
  1  2  1  0  0  0  0
  1 31  1  0  0  0  0
  1 32  1  0  0  0  0
  1 33  1  0  0  0  0
  2  3  1  0  0  0  0
  2 34  1  0  0  0  0
  2 35  1  0  0  0  0
  3  4  1  0  0  0  0
  4 10  2  0  0  0  0
  4  5  1  0  0  0  0
  5  6  2  0  0  0  0
  6  7  1  0  0  0  0
  6 13  1  0  0  0  0
  7  8  2  0  0  0  0
  7 36  1  0  0  0  0
  8  9  1  0  0  0  0
  8 10  1  0  0  0  0
  9 37  1  0  0  0  0
  9 38  1  0  0  0  0
 10 11  1  0  0  0  0
 11 12  3  0  0  0  0
 13 14  1  0  0  0  0
 13 39  1  0  0  0  0
 14 15  2  0  0  0  0
 14 16  1  0  0  0  0
 16 17  1  0  0  0  0
 16 40  1  0  0  0  0
 16 41  1  0  0  0  0
 17 28  2  0  0  0  0
 17 18  1  0  0  0  0
 18 19  1  0  0  0  0
 18 21  2  0  0  0  0
 19 20  1  0  0  0  0
 20 42  1  0  0  0  0
 20 43  1  0  0  0  0
 20 44  1  0  0  0  0
 21 22  1  0  0  0  0
 21 45  1  0  0  0  0
 22 23  1  0  0  0  0
 22 27  2  0  0  0  0
 23 24  2  0  0  0  0
 23 25  2  0  0  0  0
 23 26  1  0  0  0  0
 26 46  1  0  0  0  0
 26 47  1  0  0  0  0
 26 48  1  0  0  0  0
 27 28  1  0  0  0  0
 27 29  1  0  0  0  0
 28 49  1  0  0  0  0
 29 30  1  0  0  0  0
 30 50  1  0  0  0  0
 30 51  1  0  0  0  0
 30 52  1  0  0  0  0
M  END
$$$$
