p38a_2j
 OpenBabel02232411163D
Structure written by MMmdl.
 48 51  0  0  0  0  0  0  0  0999 V2000
   32.6860   39.9260   27.2900 C   0  0  0  0  0  0  0  0  0  0  0  0
   32.6520   39.3160   28.6970 C   0  0  0  0  0  0  0  0  0  0  0  0
   34.9890   38.7170   28.5970 C   0  0  0  0  0  0  0  0  0  0  0  0
   35.1430   39.2980   27.1860 C   0  0  0  0  0  0  0  0  0  0  0  0
   38.0400   36.3550   17.4120 C   0  0  0  0  0  0  0  0  0  0  0  0
   33.9450   39.3890   29.3400 O   0  0  0  0  0  0  0  0  0  0  0  0
   34.4450   35.2280   21.4050 C   0  0  0  0  0  0  0  0  0  0  0  0
   37.0490   35.9290   18.2990 C   0  0  0  0  0  0  0  0  0  0  0  0
   34.1640   39.3240   23.9560 C   0  0  0  0  0  0  0  0  0  0  0  0
   33.7870   39.2450   26.4480 C   0  0  0  0  0  0  0  0  0  0  0  0
   34.5060   38.0910   21.5140 C   0  0  0  0  0  0  0  0  0  0  0  0
   34.6280   37.4090   20.2590 C   0  0  0  0  0  0  0  0  0  0  0  0
   36.3050   36.4700   15.6780 C   0  0  0  0  0  0  0  0  0  0  0  0
   35.3520   36.0380   16.6040 C   0  0  0  0  0  0  0  0  0  0  0  0
   34.3740   37.3330   22.7170 C   0  0  0  0  0  0  0  0  0  0  0  0
   34.4850   39.5080   21.6370 C   0  0  0  0  0  0  0  0  0  0  0  0
   34.5910   36.0530   20.1960 C   0  0  0  0  0  0  0  0  0  0  0  0
   35.6970   35.7660   17.9370 C   0  0  0  0  0  0  0  0  0  0  0  0
   34.2950   35.1640   23.9360 C   0  0  0  0  0  0  0  0  0  0  0  0
   37.4190   35.6600   19.5490 F   0  0  0  0  0  0  0  0  0  0  0  0
   34.6360   35.3010   18.8950 C   0  0  0  0  0  0  0  0  0  0  0  0
   34.3240   40.1340   22.8080 N   0  0  0  0  0  0  0  0  0  0  0  0
   34.3660   34.0130   21.4460 O   0  0  0  0  0  0  0  0  0  0  0  0
   34.3890   35.9380   22.6670 N   0  0  0  0  0  0  0  0  0  0  0  0
   34.2180   37.9450   23.9390 N   0  0  0  0  0  0  0  0  0  0  0  0
   33.8850   39.9600   25.1390 N   0  0  0  0  0  0  0  0  0  0  0  0
   31.6940   39.7850   26.7980 H   0  0  0  0  0  0  0  0  0  0  0  0
   32.8870   41.0210   27.3670 H   0  0  0  0  0  0  0  0  0  0  0  0
   32.0140   39.9210   29.3820 H   0  0  0  0  0  0  0  0  0  0  0  0
   32.3220   38.2520   28.6640 H   0  0  0  0  0  0  0  0  0  0  0  0
   34.7590   37.6270   28.5570 H   0  0  0  0  0  0  0  0  0  0  0  0
   35.8910   38.9220   29.2190 H   0  0  0  0  0  0  0  0  0  0  0  0
   35.4990   40.3540   27.2480 H   0  0  0  0  0  0  0  0  0  0  0  0
   35.9000   38.7010   26.6250 H   0  0  0  0  0  0  0  0  0  0  0  0
   39.0780   36.5040   17.7220 H   0  0  0  0  0  0  0  0  0  0  0  0
   33.5000   38.1720   26.2650 H   0  0  0  0  0  0  0  0  0  0  0  0
   34.7420   38.0140   19.3530 H   0  0  0  0  0  0  0  0  0  0  0  0
   36.0060   36.6870   14.6530 H   0  0  0  0  0  0  0  0  0  0  0  0
   34.3150   35.9230   16.2710 H   0  0  0  0  0  0  0  0  0  0  0  0
   34.5960   40.1380   20.7370 H   0  0  0  0  0  0  0  0  0  0  0  0
   35.1140   35.4760   24.6380 H   0  0  0  0  0  0  0  0  0  0  0  0
   33.3070   35.3550   24.4360 H   0  0  0  0  0  0  0  0  0  0  0  0
   34.3920   34.0670   23.7230 H   0  0  0  0  0  0  0  0  0  0  0  0
   33.9340   40.9960   25.1960 H   0  0  0  0  0  0  0  0  0  0  0  0
   34.7900   34.2060   19.0920 H   0  0  0  0  0  0  0  0  0  0  0  0
   33.6220   35.4120   18.4120 H   0  0  0  0  0  0  0  0  0  0  0  0
   37.6230   36.6330   16.1070 C   0  0  0  0  0  0  0  0  0  0  0  0
   38.5150   37.1100   15.2420 F   0  0  0  0  0  0  0  0  0  0  0  0
  1  2  1  0  0  0  0
  1 10  1  0  0  0  0
  1 27  1  0  0  0  0
  1 28  1  0  0  0  0
  2  6  1  0  0  0  0
  2 29  1  0  0  0  0
  2 30  1  0  0  0  0
  3  4  1  0  0  0  0
  3  6  1  0  0  0  0
  3 31  1  0  0  0  0
  3 32  1  0  0  0  0
  4 10  1  0  0  0  0
  4 33  1  0  0  0  0
  4 34  1  0  0  0  0
  5  8  2  0  0  0  0
  5 35  1  0  0  0  0
  5 47  1  0  0  0  0
  7 17  1  0  0  0  0
  7 23  2  0  0  0  0
  7 24  1  0  0  0  0
  8 18  1  0  0  0  0
  8 20  1  0  0  0  0
  9 22  2  0  0  0  0
  9 25  1  0  0  0  0
  9 26  1  0  0  0  0
 10 26  1  0  0  0  0
 10 36  1  0  0  0  0
 11 12  1  0  0  0  0
 11 15  1  0  0  0  0
 11 16  2  0  0  0  0
 12 17  2  0  0  0  0
 12 37  1  0  0  0  0
 13 14  1  0  0  0  0
 13 38  1  0  0  0  0
 13 47  2  0  0  0  0
 14 18  2  0  0  0  0
 14 39  1  0  0  0  0
 15 24  1  0  0  0  0
 15 25  2  0  0  0  0
 16 22  1  0  0  0  0
 16 40  1  0  0  0  0
 17 21  1  0  0  0  0
 18 21  1  0  0  0  0
 19 24  1  0  0  0  0
 19 41  1  0  0  0  0
 19 42  1  0  0  0  0
 19 43  1  0  0  0  0
 21 45  1  0  0  0  0
 21 46  1  0  0  0  0
 26 44  1  0  0  0  0
 47 48  1  0  0  0  0
M  END
$$$$
