p38a_2p
 OpenBabel02232411163D
Structure written by MMmdl.
 58 61  0  0  0  0  0  0  0  0999 V2000
   38.2780   36.5040   17.2190 C   0  0  0  0  0  0  0  0  0  0  0  0
   34.2600   35.1250   21.1780 C   0  0  0  0  0  0  0  0  0  0  0  0
   37.5030   36.0550   18.2850 C   0  0  0  0  0  0  0  0  0  0  0  0
   33.6280   39.2200   23.6400 C   0  0  0  0  0  0  0  0  0  0  0  0
   34.4950   37.9950   21.3250 C   0  0  0  0  0  0  0  0  0  0  0  0
   35.0210   37.3110   20.1740 C   0  0  0  0  0  0  0  0  0  0  0  0
   37.6220   36.6480   15.9890 C   0  0  0  0  0  0  0  0  0  0  0  0
   36.2740   36.3390   15.7930 C   0  0  0  0  0  0  0  0  0  0  0  0
   35.5200   35.8760   16.8770 C   0  0  0  0  0  0  0  0  0  0  0  0
   33.8540   37.2550   22.3590 C   0  0  0  0  0  0  0  0  0  0  0  0
   34.5990   39.3980   21.5110 C   0  0  0  0  0  0  0  0  0  0  0  0
   34.9370   35.9630   20.1430 C   0  0  0  0  0  0  0  0  0  0  0  0
   36.1410   35.7250   18.1190 C   0  0  0  0  0  0  0  0  0  0  0  0
   38.0380   35.9340   19.4910 F   0  0  0  0  0  0  0  0  0  0  0  0
   35.4440   35.1070   19.1680 O   0  0  0  0  0  0  0  0  0  0  0  0
   34.2030   40.0200   22.6330 N   0  0  0  0  0  0  0  0  0  0  0  0
   34.2440   33.9130   21.1420 O   0  0  0  0  0  0  0  0  0  0  0  0
   33.6250   35.8670   22.2250 N   0  0  0  0  0  0  0  0  0  0  0  0
   33.4240   37.8660   23.5080 N   0  0  0  0  0  0  0  0  0  0  0  0
   33.2010   39.8650   24.7860 N   0  0  0  0  0  0  0  0  0  0  0  0
   39.3320   36.7700   17.3400 H   0  0  0  0  0  0  0  0  0  0  0  0
   35.4790   37.9060   19.3810 H   0  0  0  0  0  0  0  0  0  0  0  0
   35.7980   36.4690   14.8180 H   0  0  0  0  0  0  0  0  0  0  0  0
   34.4560   35.6530   16.7430 H   0  0  0  0  0  0  0  0  0  0  0  0
   35.0200   40.0250   20.7100 H   0  0  0  0  0  0  0  0  0  0  0  0
   33.4580   40.8650   24.9100 H   0  0  0  0  0  0  0  0  0  0  0  0
   38.3120   37.1440   14.9640 F   0  0  0  0  0  0  0  0  0  0  0  0
   33.6620   37.6370   27.8960 C   0  0  0  0  0  0  0  0  0  0  0  0
   34.0620   38.3470   26.6010 C   0  0  0  0  0  0  0  0  0  0  0  0
   32.8690   39.1760   26.0720 C   0  0  0  0  0  0  0  0  0  0  0  0
   31.6020   38.3080   25.9430 C   0  0  0  0  0  0  0  0  0  0  0  0
   31.3390   37.5380   27.2420 C   0  0  0  0  0  0  0  0  0  0  0  0
   32.5050   36.7960   27.6730 O   0  0  0  0  0  0  0  0  0  0  0  0
   33.4290   38.3630   28.7080 H   0  0  0  0  0  0  0  0  0  0  0  0
   34.4290   36.8960   28.2190 H   0  0  0  0  0  0  0  0  0  0  0  0
   34.3550   37.5790   25.8420 H   0  0  0  0  0  0  0  0  0  0  0  0
   34.9290   39.0210   26.7960 H   0  0  0  0  0  0  0  0  0  0  0  0
   32.6550   40.0150   26.7980 H   0  0  0  0  0  0  0  0  0  0  0  0
   30.7240   38.9590   25.7120 H   0  0  0  0  0  0  0  0  0  0  0  0
   31.7160   37.5750   25.1080 H   0  0  0  0  0  0  0  0  0  0  0  0
   31.0290   38.2220   28.0640 H   0  0  0  0  0  0  0  0  0  0  0  0
   30.5920   36.7250   27.0880 H   0  0  0  0  0  0  0  0  0  0  0  0
   32.6990   35.2670   23.2440 C   0  0  0  0  0  0  0  0  0  0  0  0
   32.8860   35.7810   24.2330 H   0  0  0  0  0  0  0  0  0  0  0  0
   31.6490   35.5230   22.9190 H   0  0  0  0  0  0  0  0  0  0  0  0
   32.7490   33.7560   23.4840 C   0  0  0  0  0  0  0  0  0  0  0  0
   31.9890   33.5510   24.2950 H   0  0  0  0  0  0  0  0  0  0  0  0
   32.3830   33.2200   22.5680 H   0  0  0  0  0  0  0  0  0  0  0  0
   34.0850   33.1510   23.8910 C   0  0  0  0  0  0  0  0  0  0  0  0
   34.6970   33.0190   22.9580 H   0  0  0  0  0  0  0  0  0  0  0  0
   33.8500   32.1210   24.2760 H   0  0  0  0  0  0  0  0  0  0  0  0
   35.0280   34.0390   25.0830 S   0  0  0  0  0  0  0  0  0  0  0  0
   35.5270   35.2750   24.4760 O   0  0  0  0  0  0  0  0  0  0  0  0
   36.0600   33.1020   25.5280 O   0  0  0  0  0  0  0  0  0  0  0  0
   33.9290   34.3640   26.3870 C   0  0  0  0  0  0  0  0  0  0  0  0
   33.1190   33.5950   26.4870 H   0  0  0  0  0  0  0  0  0  0  0  0
   34.4310   34.3890   27.3880 H   0  0  0  0  0  0  0  0  0  0  0  0
   33.3990   35.3570   26.3130 H   0  0  0  0  0  0  0  0  0  0  0  0
  1  3  2  0  0  0  0
  1  7  1  0  0  0  0
  1 21  1  0  0  0  0
  2 12  1  0  0  0  0
  2 17  2  0  0  0  0
  2 18  1  0  0  0  0
  3 13  1  0  0  0  0
  3 14  1  0  0  0  0
  4 16  2  0  0  0  0
  4 19  1  0  0  0  0
  4 20  1  0  0  0  0
  5  6  1  0  0  0  0
  5 10  1  0  0  0  0
  5 11  2  0  0  0  0
  6 12  2  0  0  0  0
  6 22  1  0  0  0  0
  7  8  2  0  0  0  0
  7 27  1  0  0  0  0
  8  9  1  0  0  0  0
  8 23  1  0  0  0  0
  9 13  2  0  0  0  0
  9 24  1  0  0  0  0
 10 18  1  0  0  0  0
 10 19  2  0  0  0  0
 11 16  1  0  0  0  0
 11 25  1  0  0  0  0
 12 15  1  0  0  0  0
 13 15  1  0  0  0  0
 18 43  1  0  0  0  0
 20 26  1  0  0  0  0
 20 30  1  0  0  0  0
 28 29  1  0  0  0  0
 28 33  1  0  0  0  0
 28 34  1  0  0  0  0
 28 35  1  0  0  0  0
 29 30  1  0  0  0  0
 29 36  1  0  0  0  0
 29 37  1  0  0  0  0
 30 31  1  0  0  0  0
 30 38  1  0  0  0  0
 31 32  1  0  0  0  0
 31 39  1  0  0  0  0
 31 40  1  0  0  0  0
 32 33  1  0  0  0  0
 32 41  1  0  0  0  0
 32 42  1  0  0  0  0
 43 44  1  0  0  0  0
 43 45  1  0  0  0  0
 43 46  1  0  0  0  0
 46 47  1  0  0  0  0
 46 48  1  0  0  0  0
 46 49  1  0  0  0  0
 49 50  1  0  0  0  0
 49 51  1  0  0  0  0
 49 52  1  0  0  0  0
 52 53  2  0  0  0  0
 52 54  2  0  0  0  0
 52 55  1  0  0  0  0
 55 56  1  0  0  0  0
 55 57  1  0  0  0  0
 55 58  1  0  0  0  0
M  END
$$$$
