p38a_3flw
 OpenBabel02232411163D
Structure written by MMmdl.
 49 51  0  0  0  0  0  0  0  0999 V2000
   38.3150   36.5860   17.1020 C   0  0  0  0  0  0  0  0  0  0  0  0
   37.6740   36.7620   15.8690 C   0  0  0  0  0  0  0  0  0  0  0  0
   33.1620   37.4960   26.3750 C   0  0  0  0  0  0  0  0  0  0  0  0
   34.6930   37.4230   26.4370 C   0  0  0  0  0  0  0  0  0  0  0  0
   32.2660   39.7970   27.0930 C   0  0  0  0  0  0  0  0  0  0  0  0
   32.8410   34.9720   23.0430 C   0  0  0  0  0  0  0  0  0  0  0  0
   38.0460   35.9630   19.3580 F   0  0  0  0  0  0  0  0  0  0  0  0
   37.5260   36.1110   18.1470 C   0  0  0  0  0  0  0  0  0  0  0  0
   38.3750   37.2770   14.8630 F   0  0  0  0  0  0  0  0  0  0  0  0
   36.3260   36.4670   15.6500 C   0  0  0  0  0  0  0  0  0  0  0  0
   35.5590   35.9730   16.7110 C   0  0  0  0  0  0  0  0  0  0  0  0
   36.1680   35.7850   17.9550 C   0  0  0  0  0  0  0  0  0  0  0  0
   35.4590   35.1290   18.9700 O   0  0  0  0  0  0  0  0  0  0  0  0
   34.9450   35.9400   19.9780 C   0  0  0  0  0  0  0  0  0  0  0  0
   35.0190   37.2860   20.0830 C   0  0  0  0  0  0  0  0  0  0  0  0
   34.4600   37.9200   21.2460 C   0  0  0  0  0  0  0  0  0  0  0  0
   34.5730   39.3110   21.5110 C   0  0  0  0  0  0  0  0  0  0  0  0
   34.1680   39.8760   22.6590 N   0  0  0  0  0  0  0  0  0  0  0  0
   34.2710   35.0540   20.9660 C   0  0  0  0  0  0  0  0  0  0  0  0
   34.2270   33.8450   20.9150 O   0  0  0  0  0  0  0  0  0  0  0  0
   33.6470   35.7500   22.0610 N   0  0  0  0  0  0  0  0  0  0  0  0
   33.7820   37.1370   22.2250 C   0  0  0  0  0  0  0  0  0  0  0  0
   33.3010   37.6960   23.3850 N   0  0  0  0  0  0  0  0  0  0  0  0
   33.5720   39.0300   23.6160 C   0  0  0  0  0  0  0  0  0  0  0  0
   33.3160   39.5570   24.8620 N   0  0  0  0  0  0  0  0  0  0  0  0
   32.5310   38.8300   25.9160 C   0  0  0  0  0  0  0  0  0  0  0  0
   33.5010   40.1860   27.9170 C   0  0  0  0  0  0  0  0  0  0  0  0
   33.1150   40.7640   29.1770 O   0  0  0  0  0  0  0  0  0  0  0  0
   35.2110   36.4970   25.4630 O   0  0  0  0  0  0  0  0  0  0  0  0
   39.3670   36.8470   17.2480 H   0  0  0  0  0  0  0  0  0  0  0  0
   32.7970   36.6880   25.6880 H   0  0  0  0  0  0  0  0  0  0  0  0
   32.7400   37.2630   27.3870 H   0  0  0  0  0  0  0  0  0  0  0  0
   35.1650   38.4130   26.2490 H   0  0  0  0  0  0  0  0  0  0  0  0
   35.0290   36.9810   27.4030 H   0  0  0  0  0  0  0  0  0  0  0  0
   31.7990   40.7240   26.6860 H   0  0  0  0  0  0  0  0  0  0  0  0
   31.5230   39.3030   27.7690 H   0  0  0  0  0  0  0  0  0  0  0  0
   31.8950   35.5290   23.2880 H   0  0  0  0  0  0  0  0  0  0  0  0
   32.5660   33.9750   22.6080 H   0  0  0  0  0  0  0  0  0  0  0  0
   33.4230   34.8190   23.9890 H   0  0  0  0  0  0  0  0  0  0  0  0
   35.8600   36.6300   14.6760 H   0  0  0  0  0  0  0  0  0  0  0  0
   34.4970   35.7540   16.5610 H   0  0  0  0  0  0  0  0  0  0  0  0
   35.4950   37.9190   19.3320 H   0  0  0  0  0  0  0  0  0  0  0  0
   35.0190   39.9780   20.7540 H   0  0  0  0  0  0  0  0  0  0  0  0
   33.4310   40.5790   25.0100 H   0  0  0  0  0  0  0  0  0  0  0  0
   31.5200   38.5800   25.4710 H   0  0  0  0  0  0  0  0  0  0  0  0
   34.0830   39.2930   28.2370 H   0  0  0  0  0  0  0  0  0  0  0  0
   34.1280   40.9200   27.3630 H   0  0  0  0  0  0  0  0  0  0  0  0
   32.6460   41.6400   28.9970 H   0  0  0  0  0  0  0  0  0  0  0  0
   34.7890   36.6960   24.6040 H   0  0  0  0  0  0  0  0  0  0  0  0
  1  2  2  0  0  0  0
  1  8  1  0  0  0  0
  1 30  1  0  0  0  0
  2  9  1  0  0  0  0
  2 10  1  0  0  0  0
  3  4  1  0  0  0  0
  3 26  1  0  0  0  0
  3 31  1  0  0  0  0
  3 32  1  0  0  0  0
  4 29  1  0  0  0  0
  4 33  1  0  0  0  0
  4 34  1  0  0  0  0
  5 26  1  0  0  0  0
  5 27  1  0  0  0  0
  5 35  1  0  0  0  0
  5 36  1  0  0  0  0
  6 21  1  0  0  0  0
  6 37  1  0  0  0  0
  6 38  1  0  0  0  0
  6 39  1  0  0  0  0
  7  8  1  0  0  0  0
  8 12  2  0  0  0  0
 10 11  2  0  0  0  0
 10 40  1  0  0  0  0
 11 12  1  0  0  0  0
 11 41  1  0  0  0  0
 12 13  1  0  0  0  0
 13 14  1  0  0  0  0
 14 15  2  0  0  0  0
 14 19  1  0  0  0  0
 15 16  1  0  0  0  0
 15 42  1  0  0  0  0
 16 17  2  0  0  0  0
 16 22  1  0  0  0  0
 17 18  1  0  0  0  0
 17 43  1  0  0  0  0
 18 24  2  0  0  0  0
 19 20  2  0  0  0  0
 19 21  1  0  0  0  0
 21 22  1  0  0  0  0
 22 23  2  0  0  0  0
 23 24  1  0  0  0  0
 24 25  1  0  0  0  0
 25 26  1  0  0  0  0
 25 44  1  0  0  0  0
 26 45  1  0  0  0  0
 27 28  1  0  0  0  0
 27 46  1  0  0  0  0
 27 47  1  0  0  0  0
 28 48  1  0  0  0  0
 29 49  1  0  0  0  0
M  END
$$$$
