p38a_3flw
 OpenBabel02232411163D
Structure written by MMmdl.
 49 51  0  0  0  0  0  0  0  0999 V2000
   38.2340   36.5240   17.1440 C   0  0  0  0  0  0  0  0  0  0  0  0
   37.6180   36.7160   15.8990 C   0  0  0  0  0  0  0  0  0  0  0  0
   34.9200   39.5580   27.4220 C   0  0  0  0  0  0  0  0  0  0  0  0
   35.0240   41.0610   27.7070 C   0  0  0  0  0  0  0  0  0  0  0  0
   32.4710   39.5040   26.6790 C   0  0  0  0  0  0  0  0  0  0  0  0
   34.5500   35.0760   23.7680 C   0  0  0  0  0  0  0  0  0  0  0  0
   37.9190   35.9100   19.3930 F   0  0  0  0  0  0  0  0  0  0  0  0
   37.4150   36.0790   18.1770 C   0  0  0  0  0  0  0  0  0  0  0  0
   38.3520   37.2080   14.9030 F   0  0  0  0  0  0  0  0  0  0  0  0
   36.2670   36.4560   15.6600 C   0  0  0  0  0  0  0  0  0  0  0  0
   35.4670   35.9970   16.7120 C   0  0  0  0  0  0  0  0  0  0  0  0
   36.0450   35.8040   17.9700 C   0  0  0  0  0  0  0  0  0  0  0  0
   35.2680   35.2100   18.9720 O   0  0  0  0  0  0  0  0  0  0  0  0
   35.0080   36.0190   20.0800 C   0  0  0  0  0  0  0  0  0  0  0  0
   34.9810   37.3710   20.1090 C   0  0  0  0  0  0  0  0  0  0  0  0
   34.7410   38.0290   21.3630 C   0  0  0  0  0  0  0  0  0  0  0  0
   34.6180   39.4380   21.4900 C   0  0  0  0  0  0  0  0  0  0  0  0
   34.4310   40.0480   22.6700 N   0  0  0  0  0  0  0  0  0  0  0  0
   34.7070   35.1530   21.2500 C   0  0  0  0  0  0  0  0  0  0  0  0
   34.5220   33.9570   21.2150 O   0  0  0  0  0  0  0  0  0  0  0  0
   34.6410   35.8580   22.5030 N   0  0  0  0  0  0  0  0  0  0  0  0
   34.6320   37.2610   22.5620 C   0  0  0  0  0  0  0  0  0  0  0  0
   34.4990   37.8600   23.7890 N   0  0  0  0  0  0  0  0  0  0  0  0
   34.3920   39.2340   23.8190 C   0  0  0  0  0  0  0  0  0  0  0  0
   34.3380   39.8880   25.0420 N   0  0  0  0  0  0  0  0  0  0  0  0
   33.9330   39.1790   26.2900 C   0  0  0  0  0  0  0  0  0  0  0  0
   31.4300   39.3790   25.5570 C   0  0  0  0  0  0  0  0  0  0  0  0
   31.6600   38.3030   24.6380 O   0  0  0  0  0  0  0  0  0  0  0  0
   36.0810   41.3340   28.6440 O   0  0  0  0  0  0  0  0  0  0  0  0
   39.2930   36.7510   17.3020 H   0  0  0  0  0  0  0  0  0  0  0  0
   35.9330   39.1740   27.1450 H   0  0  0  0  0  0  0  0  0  0  0  0
   34.5870   39.0240   28.3470 H   0  0  0  0  0  0  0  0  0  0  0  0
   35.3470   41.6310   26.8070 H   0  0  0  0  0  0  0  0  0  0  0  0
   34.0700   41.4650   28.1150 H   0  0  0  0  0  0  0  0  0  0  0  0
   32.1970   38.8270   27.5270 H   0  0  0  0  0  0  0  0  0  0  0  0
   32.4150   40.5550   27.0600 H   0  0  0  0  0  0  0  0  0  0  0  0
   33.5630   35.2620   24.2720 H   0  0  0  0  0  0  0  0  0  0  0  0
   34.6490   33.9800   23.5550 H   0  0  0  0  0  0  0  0  0  0  0  0
   35.3680   35.3910   24.4720 H   0  0  0  0  0  0  0  0  0  0  0  0
   35.8230   36.6220   14.6760 H   0  0  0  0  0  0  0  0  0  0  0  0
   34.4020   35.8070   16.5440 H   0  0  0  0  0  0  0  0  0  0  0  0
   35.1510   37.9860   19.2230 H   0  0  0  0  0  0  0  0  0  0  0  0
   34.6610   40.0800   20.5930 H   0  0  0  0  0  0  0  0  0  0  0  0
   34.0700   40.8950   25.0480 H   0  0  0  0  0  0  0  0  0  0  0  0
   34.0200   38.0640   26.1470 H   0  0  0  0  0  0  0  0  0  0  0  0
   30.4210   39.2230   26.0050 H   0  0  0  0  0  0  0  0  0  0  0  0
   31.4450   40.2790   24.9000 H   0  0  0  0  0  0  0  0  0  0  0  0
   31.8950   37.4870   25.1420 H   0  0  0  0  0  0  0  0  0  0  0  0
   35.8920   40.8560   29.4920 H   0  0  0  0  0  0  0  0  0  0  0  0
  1  2  2  0  0  0  0
  1  8  1  0  0  0  0
  1 30  1  0  0  0  0
  2  9  1  0  0  0  0
  2 10  1  0  0  0  0
  3  4  1  0  0  0  0
  3 26  1  0  0  0  0
  3 31  1  0  0  0  0
  3 32  1  0  0  0  0
  4 29  1  0  0  0  0
  4 33  1  0  0  0  0
  4 34  1  0  0  0  0
  5 26  1  0  0  0  0
  5 27  1  0  0  0  0
  5 35  1  0  0  0  0
  5 36  1  0  0  0  0
  6 21  1  0  0  0  0
  6 37  1  0  0  0  0
  6 38  1  0  0  0  0
  6 39  1  0  0  0  0
  7  8  1  0  0  0  0
  8 12  2  0  0  0  0
 10 11  2  0  0  0  0
 10 40  1  0  0  0  0
 11 12  1  0  0  0  0
 11 41  1  0  0  0  0
 12 13  1  0  0  0  0
 13 14  1  0  0  0  0
 14 15  2  0  0  0  0
 14 19  1  0  0  0  0
 15 16  1  0  0  0  0
 15 42  1  0  0  0  0
 16 17  2  0  0  0  0
 16 22  1  0  0  0  0
 17 18  1  0  0  0  0
 17 43  1  0  0  0  0
 18 24  2  0  0  0  0
 19 20  2  0  0  0  0
 19 21  1  0  0  0  0
 21 22  1  0  0  0  0
 22 23  2  0  0  0  0
 23 24  1  0  0  0  0
 24 25  1  0  0  0  0
 25 26  1  0  0  0  0
 25 44  1  0  0  0  0
 26 45  1  0  0  0  0
 27 28  1  0  0  0  0
 27 46  1  0  0  0  0
 27 47  1  0  0  0  0
 28 48  1  0  0  0  0
 29 49  1  0  0  0  0
M  END
$$$$
