jmc_30
                    3D
 Schrodinger Suite 2022-3.
 37 39  0  0  1  0  0  0  0  0999 V2000
   -3.1510   22.6410  -29.6410 C   0  0  0  0  0  0  0  0  0  0  0  0
   -3.6270   21.5510  -28.8930 C   0  0  0  0  0  0  0  0  0  0  0  0
   -2.8340   20.9170  -27.9370 C   0  0  0  0  0  0  0  0  0  0  0  0
   -5.1840   25.2780  -31.5030 C   0  0  0  0  0  0  0  0  0  0  0  0
   -4.0090   23.1730  -30.7510 C   0  0  0  0  0  0  0  0  0  0  0  0
   -5.8440   24.7080  -32.6050 C   0  0  0  0  0  0  0  0  0  0  0  0
   -6.7180   25.5100  -33.3520 C   0  0  0  0  0  0  0  0  0  0  0  0
   -1.8620   23.1070  -29.3580 C   0  0  0  0  0  0  0  0  0  0  0  0
   -1.5380   21.3870  -27.6980 C   0  0  0  0  0  0  0  0  0  0  0  0
   -1.0510   22.4920  -28.4000 C   0  0  0  0  0  0  0  0  0  0  0  0
   -5.2230   20.9870  -29.1660 Cl  0  0  0  0  0  0  0  0  0  0  0  0
   -4.4100   22.4610  -31.6470 O   0  0  0  0  0  0  0  0  0  0  0  0
   -4.3210   24.5440  -30.6420 N   0  0  0  0  0  0  0  0  0  0  0  0
   -6.9450   26.8200  -33.0790 N   0  0  0  0  0  0  0  0  0  0  0  0
   -6.2840   27.3660  -32.0000 C   0  0  0  0  0  0  0  0  0  0  0  0
   -5.3960   26.6390  -31.1960 C   0  0  0  0  0  0  0  0  0  0  0  0
   -6.6230   28.7270  -31.7300 N   0  0  0  0  0  0  0  0  0  0  0  0
   -5.8040   29.6660  -31.0640 C   0  0  0  0  0  0  0  0  0  0  0  0
   -4.6790   29.3870  -30.6960 O   0  0  0  0  0  0  0  0  0  0  0  0
   -6.4610   31.0000  -30.8530 C   0  0  1  0  0  0  0  0  0  0  0  0
   -6.0590   31.8420  -29.6490 C   0  0  0  0  0  0  0  0  0  0  0  0
   -5.6940   32.3170  -31.0430 C   0  0  1  0  0  0  0  0  0  0  0  0
   -1.2320   24.4700  -30.1850 Cl  0  0  0  0  0  0  0  0  0  0  0  0
   -3.2030   20.0580  -27.3720 H   0  0  0  0  0  0  0  0  0  0  0  0
   -5.7110   23.6570  -32.8790 H   0  0  0  0  0  0  0  0  0  0  0  0
   -7.2700   25.0890  -34.2090 H   0  0  0  0  0  0  0  0  0  0  0  0
   -0.9050   20.8900  -26.9540 H   0  0  0  0  0  0  0  0  0  0  0  0
   -0.0460   22.8660  -28.1850 H   0  0  0  0  0  0  0  0  0  0  0  0
   -3.9190   25.0690  -29.8440 H   0  0  0  0  0  0  0  0  0  0  0  0
   -4.8890   27.1130  -30.3510 H   0  0  0  0  0  0  0  0  0  0  0  0
   -7.5710   29.0260  -32.0540 H   0  0  0  0  0  0  0  0  0  0  0  0
   -7.5210   31.0470  -31.1610 H   0  0  0  0  0  0  0  0  0  0  0  0
   -5.2740   31.4830  -28.9690 H   0  0  0  0  0  0  0  0  0  0  0  0
   -6.8490   32.3960  -29.1160 H   0  0  0  0  0  0  0  0  0  0  0  0
   -4.3280   32.3390  -31.4880 C   0  0  0  0  0  0  0  0  0  0  0  0
   -3.2360   32.3860  -31.8640 N   0  0  0  0  0  0  0  0  0  0  0  0
   -6.2910   33.1640  -31.4530 H   0  0  0  0  0  0  0  0  0  0  0  0
  1  2  2  0  0  0  0
  1  5  1  0  0  0  0
  1  8  1  0  0  0  0
  2  3  1  0  0  0  0
  2 11  1  0  0  0  0
  3  9  2  0  0  0  0
  3 24  1  0  0  0  0
  4  6  1  0  0  0  0
  4 13  1  0  0  0  0
  4 16  2  0  0  0  0
  5 12  2  0  0  0  0
  5 13  1  0  0  0  0
  6  7  2  0  0  0  0
  6 25  1  0  0  0  0
  7 14  1  0  0  0  0
  7 26  1  0  0  0  0
  8 10  2  0  0  0  0
  8 23  1  0  0  0  0
  9 10  1  0  0  0  0
  9 27  1  0  0  0  0
 10 28  1  0  0  0  0
 13 29  1  0  0  0  0
 14 15  2  0  0  0  0
 15 16  1  0  0  0  0
 15 17  1  0  0  0  0
 16 30  1  0  0  0  0
 17 18  1  0  0  0  0
 17 31  1  0  0  0  0
 18 19  2  0  0  0  0
 18 20  1  0  0  0  0
 20 21  1  0  0  0  0
 20 22  1  0  0  0  0
 20 32  1  0  0  0  0
 21 22  1  0  0  0  0
 21 33  1  0  0  0  0
 21 34  1  0  0  0  0
 22 35  1  0  0  0  0
 22 37  1  0  0  0  0
 35 36  3  0  0  0  0
M  END
$$$$
