39
 OpenBabel02232411163D
Structure written by MMmdl.
 48 51  0  0  0  0  0  0  0  0999 V2000
    4.5300  -51.3800    7.3600 O   0  0  0  0  0  0  0  0  0  0  0  0
    3.8370  -50.3440    7.3420 C   0  0  0  0  0  0  0  0  0  0  0  0
    4.2210  -49.1910    7.5840 O   0  5  0  0  0  0  0  0  0  0  0  0
    2.3570  -50.5300    6.9650 C   0  0  0  0  0  0  0  0  0  0  0  0
    0.3260  -51.5740    6.8890 C   0  0  0  0  0  0  0  0  0  0  0  0
   -0.7710  -52.4360    7.0620 C   0  0  0  0  0  0  0  0  0  0  0  0
   -1.9860  -52.0440    6.5210 C   0  0  0  0  0  0  0  0  0  0  0  0
   -2.1100  -50.8280    5.8070 C   0  0  0  0  0  0  0  0  0  0  0  0
   -1.0260  -49.9840    5.6140 C   0  0  0  0  0  0  0  0  0  0  0  0
    0.2200  -50.3300    6.1640 C   0  0  0  0  0  0  0  0  0  0  0  0
    1.5160  -49.6920    6.2370 C   0  0  0  0  0  0  0  0  0  0  0  0
    1.8840  -48.3600    5.6820 C   0  0  0  0  0  0  0  0  0  0  0  0
    0.9240  -47.2330    6.1160 C   0  0  0  0  0  0  0  0  0  0  0  0
    0.6080  -47.3780    7.5990 C   0  0  0  0  0  0  0  0  0  0  0  0
   -0.0860  -46.2300    8.1850 O   0  0  0  0  0  0  0  0  0  0  0  0
   -1.4090  -46.0540    7.8430 C   0  0  0  0  0  0  0  0  0  0  0  0
   -2.4190  -46.3020    8.7820 C   0  0  0  0  0  0  0  0  0  0  0  0
   -3.7360  -45.9670    8.4630 C   0  0  0  0  0  0  0  0  0  0  0  0
   -4.0620  -45.4100    7.2150 C   0  0  0  0  0  0  0  0  0  0  0  0
   -3.0410  -45.2630    6.2540 C   0  0  0  0  0  0  0  0  0  0  0  0
   -1.7190  -45.5340    6.5780 C   0  0  0  0  0  0  0  0  0  0  0  0
   -0.6790  -53.3760    7.6060 H   0  0  0  0  0  0  0  0  0  0  0  0
   -2.8690  -52.6720    6.6460 H   0  0  0  0  0  0  0  0  0  0  0  0
   -3.0890  -50.5570    5.4070 H   0  0  0  0  0  0  0  0  0  0  0  0
   -1.1570  -49.0630    5.0470 H   0  0  0  0  0  0  0  0  0  0  0  0
    1.8790  -48.4070    4.5700 H   0  0  0  0  0  0  0  0  0  0  0  0
    2.9180  -48.0910    6.0250 H   0  0  0  0  0  0  0  0  0  0  0  0
   -0.0160  -47.2960    5.5170 H   0  0  0  0  0  0  0  0  0  0  0  0
    1.3940  -46.2420    5.9130 H   0  0  0  0  0  0  0  0  0  0  0  0
    1.5330  -47.3500    8.2200 H   0  0  0  0  0  0  0  0  0  0  0  0
   -0.0250  -48.2670    7.8040 H   0  0  0  0  0  0  0  0  0  0  0  0
   -2.2110  -46.7010    9.7710 H   0  0  0  0  0  0  0  0  0  0  0  0
   -0.9110  -45.3110    5.8930 H   0  0  0  0  0  0  0  0  0  0  0  0
    1.6430  -51.6750    7.3610 N   0  0  0  0  0  0  0  0  0  0  0  0
    1.9920  -52.4790    7.8720 H   0  0  0  0  0  0  0  0  0  0  0  0
   -3.2830  -44.9410    5.2390 H   0  0  0  0  0  0  0  0  0  0  0  0
   -4.5100  -46.1310    9.2170 H   0  0  0  0  0  0  0  0  0  0  0  0
   -8.0490  -44.2030    6.1840 C   0  0  0  0  0  0  0  0  0  0  0  0
   -6.9550  -43.7120    5.4710 C   0  0  0  0  0  0  0  0  0  0  0  0
   -5.6580  -44.0730    5.8330 C   0  0  0  0  0  0  0  0  0  0  0  0
   -5.4330  -44.9640    6.9010 C   0  0  0  0  0  0  0  0  0  0  0  0
   -6.5420  -45.4310    7.6300 C   0  0  0  0  0  0  0  0  0  0  0  0
   -7.8360  -45.0580    7.2680 C   0  0  0  0  0  0  0  0  0  0  0  0
   -9.0640  -43.9360    5.9010 H   0  0  0  0  0  0  0  0  0  0  0  0
   -7.1040  -43.0470    4.6260 H   0  0  0  0  0  0  0  0  0  0  0  0
   -4.8300  -43.6420    5.2690 H   0  0  0  0  0  0  0  0  0  0  0  0
   -6.4180  -46.1070    8.4770 H   0  0  0  0  0  0  0  0  0  0  0  0
   -8.6900  -45.4440    7.8220 H   0  0  0  0  0  0  0  0  0  0  0  0
  1  2  2  0  0  0  0
  2  3  1  0  0  0  0
  2  4  1  0  0  0  0
  4 11  2  0  0  0  0
  4 34  1  0  0  0  0
  5  6  2  0  0  0  0
  5 10  1  0  0  0  0
  5 34  1  0  0  0  0
  6  7  1  0  0  0  0
  6 22  1  0  0  0  0
  7  8  2  0  0  0  0
  7 23  1  0  0  0  0
  8  9  1  0  0  0  0
  8 24  1  0  0  0  0
  9 10  2  0  0  0  0
  9 25  1  0  0  0  0
 10 11  1  0  0  0  0
 11 12  1  0  0  0  0
 12 26  1  0  0  0  0
 12 27  1  0  0  0  0
 12 13  1  0  0  0  0
 13 14  1  0  0  0  0
 13 28  1  0  0  0  0
 13 29  1  0  0  0  0
 14 15  1  0  0  0  0
 14 30  1  0  0  0  0
 14 31  1  0  0  0  0
 15 16  1  0  0  0  0
 16 17  2  0  0  0  0
 16 21  1  0  0  0  0
 17 18  1  0  0  0  0
 17 32  1  0  0  0  0
 18 19  2  0  0  0  0
 18 37  1  0  0  0  0
 19 20  1  0  0  0  0
 19 41  1  0  0  0  0
 20 21  2  0  0  0  0
 20 36  1  0  0  0  0
 21 33  1  0  0  0  0
 34 35  1  0  0  0  0
 38 39  2  0  0  0  0
 38 43  1  0  0  0  0
 38 44  1  0  0  0  0
 39 40  1  0  0  0  0
 39 45  1  0  0  0  0
 40 41  2  0  0  0  0
 40 46  1  0  0  0  0
 41 42  1  0  0  0  0
 42 43  2  0  0  0  0
 42 47  1  0  0  0  0
 43 48  1  0  0  0  0
M  CHG  1   3  -1
M  END
$$$$
