p38a_2x
 OpenBabel02232411163D
Structure written by MMmdl.
 43 46  0  0  1  0  0  0  0  0999 V2000
   38.2910   36.5350   17.1620 C   0  0  0  0  0  0  0  0  0  0  0  0
   34.4860   35.0850   21.2010 C   0  0  0  0  0  0  0  0  0  0  0  0
   37.5080   36.0730   18.2160 C   0  0  0  0  0  0  0  0  0  0  0  0
   33.8860   39.1780   23.7080 C   0  0  0  0  0  0  0  0  0  0  0  0
   34.6350   37.9580   21.3530 C   0  0  0  0  0  0  0  0  0  0  0  0
   35.0670   37.2920   20.1540 C   0  0  0  0  0  0  0  0  0  0  0  0
   37.6450   36.6900   15.9280 C   0  0  0  0  0  0  0  0  0  0  0  0
   36.2990   36.3820   15.7190 C   0  0  0  0  0  0  0  0  0  0  0  0
   35.5370   35.9060   16.7910 C   0  0  0  0  0  0  0  0  0  0  0  0
   34.1740   37.2010   22.4690 C   0  0  0  0  0  0  0  0  0  0  0  0
   34.6560   39.3710   21.4980 C   0  0  0  0  0  0  0  0  0  0  0  0
   35.0230   35.9410   20.1090 C   0  0  0  0  0  0  0  0  0  0  0  0
   36.1480   35.7430   18.0370 C   0  0  0  0  0  0  0  0  0  0  0  0
   33.5780   35.0350   23.5540 C   0  0  0  0  0  0  0  0  0  0  0  0
   38.0380   35.9430   19.4250 F   0  0  0  0  0  0  0  0  0  0  0  0
   35.4310   35.1140   19.0650 O   0  0  0  0  0  0  0  0  0  0  0  0
   34.3040   39.9900   22.6330 N   0  0  0  0  0  0  0  0  0  0  0  0
   34.3660   33.8800   21.1540 O   0  0  0  0  0  0  0  0  0  0  0  0
   34.0920   35.8020   22.3850 N   0  0  0  0  0  0  0  0  0  0  0  0
   33.7980   37.8050   23.6470 N   0  0  0  0  0  0  0  0  0  0  0  0
   33.6120   39.8450   24.8870 N   0  0  0  0  0  0  0  0  0  0  0  0
   39.3440   36.8000   17.2980 H   0  0  0  0  0  0  0  0  0  0  0  0
   35.4260   37.9050   19.3250 H   0  0  0  0  0  0  0  0  0  0  0  0
   35.8300   36.5230   14.7430 H   0  0  0  0  0  0  0  0  0  0  0  0
   34.4750   35.6820   16.6480 H   0  0  0  0  0  0  0  0  0  0  0  0
   34.9580   40.0050   20.6490 H   0  0  0  0  0  0  0  0  0  0  0  0
   34.2370   35.2100   24.4470 H   0  0  0  0  0  0  0  0  0  0  0  0
   32.5380   35.3780   23.8050 H   0  0  0  0  0  0  0  0  0  0  0  0
   33.5570   33.9380   23.3210 H   0  0  0  0  0  0  0  0  0  0  0  0
   33.6690   40.8870   24.8760 H   0  0  0  0  0  0  0  0  0  0  0  0
   38.3420   37.1970   14.9130 F   0  0  0  0  0  0  0  0  0  0  0  0
   32.4810   37.4530   27.4660 O   0  0  0  0  0  0  0  0  0  0  0  0
   31.2670   37.5470   26.6630 C   0  0  0  0  0  0  0  0  0  0  0  0
   31.4530   38.6800   25.6430 C   0  0  0  0  0  0  0  0  0  0  0  0
   32.8060   39.3290   26.0190 C   0  0  1  0  0  0  0  0  0  0  0  0
   33.5310   38.2380   26.8490 C   0  0  0  0  0  0  0  0  0  0  0  0
   30.4620   37.7610   27.3990 H   0  0  0  0  0  0  0  0  0  0  0  0
   31.1280   36.5590   26.1740 H   0  0  0  0  0  0  0  0  0  0  0  0
   31.4690   38.2680   24.6080 H   0  0  0  0  0  0  0  0  0  0  0  0
   30.6290   39.4220   25.6990 H   0  0  0  0  0  0  0  0  0  0  0  0
   32.6180   40.2320   26.6710 H   0  0  0  0  0  0  0  0  0  0  0  0
   34.1080   38.6620   27.6990 H   0  0  0  0  0  0  0  0  0  0  0  0
   34.1430   37.5570   26.2190 H   0  0  0  0  0  0  0  0  0  0  0  0
  1  3  2  0  0  0  0
  1  7  1  0  0  0  0
  1 22  1  0  0  0  0
  2 12  1  0  0  0  0
  2 18  2  0  0  0  0
  2 19  1  0  0  0  0
  3 13  1  0  0  0  0
  3 15  1  0  0  0  0
  4 17  2  0  0  0  0
  4 20  1  0  0  0  0
  4 21  1  0  0  0  0
  5  6  1  0  0  0  0
  5 10  1  0  0  0  0
  5 11  2  0  0  0  0
  6 12  2  0  0  0  0
  6 23  1  0  0  0  0
  7  8  2  0  0  0  0
  7 31  1  0  0  0  0
  8  9  1  0  0  0  0
  8 24  1  0  0  0  0
  9 13  2  0  0  0  0
  9 25  1  0  0  0  0
 10 19  1  0  0  0  0
 10 20  2  0  0  0  0
 11 17  1  0  0  0  0
 11 26  1  0  0  0  0
 12 16  1  0  0  0  0
 13 16  1  0  0  0  0
 14 19  1  0  0  0  0
 14 27  1  0  0  0  0
 14 28  1  0  0  0  0
 14 29  1  0  0  0  0
 21 30  1  0  0  0  0
 21 35  1  0  0  0  0
 32 33  1  0  0  0  0
 32 36  1  0  0  0  0
 33 34  1  0  0  0  0
 33 37  1  0  0  0  0
 33 38  1  0  0  0  0
 34 35  1  0  0  0  0
 34 39  1  0  0  0  0
 34 40  1  0  0  0  0
 35 36  1  0  0  0  0
 35 41  1  1  0  0  0
 36 42  1  0  0  0  0
 36 43  1  0  0  0  0
M  END
$$$$
