p38a_2n
 OpenBabel02232411163D
Structure written by MMmdl.
 53 56  0  0  0  0  0  0  0  0999 V2000
   38.3080   36.5450   17.1610 C   0  0  0  0  0  0  0  0  0  0  0  0
   34.4140   35.0660   21.1800 C   0  0  0  0  0  0  0  0  0  0  0  0
   37.5450   36.0810   18.2290 C   0  0  0  0  0  0  0  0  0  0  0  0
   33.6890   39.1660   23.6540 C   0  0  0  0  0  0  0  0  0  0  0  0
   34.5830   37.9310   21.3560 C   0  0  0  0  0  0  0  0  0  0  0  0
   35.0910   37.2680   20.1860 C   0  0  0  0  0  0  0  0  0  0  0  0
   37.6420   36.6860   15.9350 C   0  0  0  0  0  0  0  0  0  0  0  0
   36.2970   36.3620   15.7480 C   0  0  0  0  0  0  0  0  0  0  0  0
   35.5570   35.8810   16.8330 C   0  0  0  0  0  0  0  0  0  0  0  0
   34.0240   37.1810   22.4320 C   0  0  0  0  0  0  0  0  0  0  0  0
   34.6230   39.3430   21.5040 C   0  0  0  0  0  0  0  0  0  0  0  0
   35.0330   35.9180   20.1300 C   0  0  0  0  0  0  0  0  0  0  0  0
   36.1880   35.7300   18.0710 C   0  0  0  0  0  0  0  0  0  0  0  0
   38.0920   35.9660   19.4320 F   0  0  0  0  0  0  0  0  0  0  0  0
   35.5020   35.0890   19.1120 O   0  0  0  0  0  0  0  0  0  0  0  0
   34.2060   39.9690   22.6100 N   0  0  0  0  0  0  0  0  0  0  0  0
   34.3120   33.8600   21.1240 O   0  0  0  0  0  0  0  0  0  0  0  0
   33.9050   35.7820   22.3210 N   0  0  0  0  0  0  0  0  0  0  0  0
   33.5890   37.7930   23.5850 N   0  0  0  0  0  0  0  0  0  0  0  0
   33.2370   39.8690   24.7470 N   0  0  0  0  0  0  0  0  0  0  0  0
   39.3580   36.8240   17.2810 H   0  0  0  0  0  0  0  0  0  0  0  0
   35.5130   37.8810   19.3880 H   0  0  0  0  0  0  0  0  0  0  0  0
   35.8120   36.4940   14.7770 H   0  0  0  0  0  0  0  0  0  0  0  0
   34.4950   35.6450   16.7060 H   0  0  0  0  0  0  0  0  0  0  0  0
   35.0080   39.9710   20.6830 H   0  0  0  0  0  0  0  0  0  0  0  0
   33.4530   40.8880   24.7880 H   0  0  0  0  0  0  0  0  0  0  0  0
   38.3190   37.1930   14.9080 F   0  0  0  0  0  0  0  0  0  0  0  0
   33.3480   38.1020   28.1650 C   0  0  0  0  0  0  0  0  0  0  0  0
   33.8770   38.5280   26.7900 C   0  0  0  0  0  0  0  0  0  0  0  0
   32.7800   39.3310   26.0620 C   0  0  0  0  0  0  0  0  0  0  0  0
   31.4920   38.4950   25.9510 C   0  0  0  0  0  0  0  0  0  0  0  0
   31.0660   38.0320   27.3520 C   0  0  0  0  0  0  0  0  0  0  0  0
   32.1250   37.3400   28.0510 O   0  0  0  0  0  0  0  0  0  0  0  0
   33.1620   38.9880   28.8150 H   0  0  0  0  0  0  0  0  0  0  0  0
   34.0340   37.3740   28.6560 H   0  0  0  0  0  0  0  0  0  0  0  0
   34.1470   37.6220   26.1950 H   0  0  0  0  0  0  0  0  0  0  0  0
   34.7900   39.1560   26.9190 H   0  0  0  0  0  0  0  0  0  0  0  0
   32.5510   40.2620   26.6660 H   0  0  0  0  0  0  0  0  0  0  0  0
   30.6780   39.1070   25.4970 H   0  0  0  0  0  0  0  0  0  0  0  0
   31.6650   37.6040   25.3000 H   0  0  0  0  0  0  0  0  0  0  0  0
   30.7320   38.8910   27.9750 H   0  0  0  0  0  0  0  0  0  0  0  0
   30.2800   37.2440   27.2910 H   0  0  0  0  0  0  0  0  0  0  0  0
   33.2130   34.9880   23.3910 C   0  0  0  0  0  0  0  0  0  0  0  0
   32.6320   35.6870   24.0550 H   0  0  0  0  0  0  0  0  0  0  0  0
   32.4840   34.2980   22.8830 H   0  0  0  0  0  0  0  0  0  0  0  0
   34.2060   34.1810   24.2420 C   0  0  0  0  0  0  0  0  0  0  0  0
   34.7600   33.4470   23.6100 H   0  0  0  0  0  0  0  0  0  0  0  0
   34.9460   34.8700   24.7180 H   0  0  0  0  0  0  0  0  0  0  0  0
   33.4410   33.4270   25.3430 C   0  0  0  0  0  0  0  0  0  0  0  0
   33.1300   34.1150   26.1650 H   0  0  0  0  0  0  0  0  0  0  0  0
   32.5630   32.8790   24.9310 H   0  0  0  0  0  0  0  0  0  0  0  0
   34.3090   32.4920   26.0050 O   0  0  0  0  0  0  0  0  0  0  0  0
   34.4310   31.6900   25.4110 H   0  0  0  0  0  0  0  0  0  0  0  0
  1  3  2  0  0  0  0
  1  7  1  0  0  0  0
  1 21  1  0  0  0  0
  2 12  1  0  0  0  0
  2 17  2  0  0  0  0
  2 18  1  0  0  0  0
  3 13  1  0  0  0  0
  3 14  1  0  0  0  0
  4 16  2  0  0  0  0
  4 19  1  0  0  0  0
  4 20  1  0  0  0  0
  5  6  1  0  0  0  0
  5 10  1  0  0  0  0
  5 11  2  0  0  0  0
  6 12  2  0  0  0  0
  6 22  1  0  0  0  0
  7  8  2  0  0  0  0
  7 27  1  0  0  0  0
  8  9  1  0  0  0  0
  8 23  1  0  0  0  0
  9 13  2  0  0  0  0
  9 24  1  0  0  0  0
 10 18  1  0  0  0  0
 10 19  2  0  0  0  0
 11 16  1  0  0  0  0
 11 25  1  0  0  0  0
 12 15  1  0  0  0  0
 13 15  1  0  0  0  0
 18 43  1  0  0  0  0
 20 26  1  0  0  0  0
 20 30  1  0  0  0  0
 28 29  1  0  0  0  0
 28 33  1  0  0  0  0
 28 34  1  0  0  0  0
 28 35  1  0  0  0  0
 29 30  1  0  0  0  0
 29 36  1  0  0  0  0
 29 37  1  0  0  0  0
 30 31  1  0  0  0  0
 30 38  1  0  0  0  0
 31 32  1  0  0  0  0
 31 39  1  0  0  0  0
 31 40  1  0  0  0  0
 32 33  1  0  0  0  0
 32 41  1  0  0  0  0
 32 42  1  0  0  0  0
 43 44  1  0  0  0  0
 43 45  1  0  0  0  0
 43 46  1  0  0  0  0
 46 47  1  0  0  0  0
 46 48  1  0  0  0  0
 46 49  1  0  0  0  0
 49 50  1  0  0  0  0
 49 51  1  0  0  0  0
 49 52  1  0  0  0  0
 52 53  1  0  0  0  0
M  END
$$$$
