p38a_2n
 OpenBabel02232411163D
Structure written by MMmdl.
 53 56  0  0  0  0  0  0  0  0999 V2000
   38.3590   36.6040   17.0840 C   0  0  0  0  0  0  0  0  0  0  0  0
   34.4290   35.0500   21.0350 C   0  0  0  0  0  0  0  0  0  0  0  0
   37.5900   36.1210   18.1390 C   0  0  0  0  0  0  0  0  0  0  0  0
   33.8540   39.0820   23.6460 C   0  0  0  0  0  0  0  0  0  0  0  0
   34.6210   37.9170   21.2700 C   0  0  0  0  0  0  0  0  0  0  0  0
   35.1180   37.2730   20.0850 C   0  0  0  0  0  0  0  0  0  0  0  0
   37.7020   36.7570   15.8550 C   0  0  0  0  0  0  0  0  0  0  0  0
   36.3600   36.4280   15.6510 C   0  0  0  0  0  0  0  0  0  0  0  0
   35.6140   35.9260   16.7220 C   0  0  0  0  0  0  0  0  0  0  0  0
   34.0880   37.1360   22.3390 C   0  0  0  0  0  0  0  0  0  0  0  0
   34.6490   39.3250   21.4550 C   0  0  0  0  0  0  0  0  0  0  0  0
   35.0620   35.9240   20.0080 C   0  0  0  0  0  0  0  0  0  0  0  0
   36.2380   35.7630   17.9620 C   0  0  0  0  0  0  0  0  0  0  0  0
   38.1250   35.9980   19.3470 F   0  0  0  0  0  0  0  0  0  0  0  0
   35.5450   35.1080   18.9890 O   0  0  0  0  0  0  0  0  0  0  0  0
   34.2820   39.9220   22.5990 N   0  0  0  0  0  0  0  0  0  0  0  0
   34.3240   33.8470   20.9500 O   0  0  0  0  0  0  0  0  0  0  0  0
   33.9120   35.7490   22.1810 N   0  0  0  0  0  0  0  0  0  0  0  0
   33.7390   37.7100   23.5350 N   0  0  0  0  0  0  0  0  0  0  0  0
   33.4680   39.6870   24.8240 N   0  0  0  0  0  0  0  0  0  0  0  0
   39.4050   36.8890   17.2180 H   0  0  0  0  0  0  0  0  0  0  0  0
   35.5380   37.9000   19.2970 H   0  0  0  0  0  0  0  0  0  0  0  0
   35.8820   36.5730   14.6800 H   0  0  0  0  0  0  0  0  0  0  0  0
   34.5560   35.6840   16.5840 H   0  0  0  0  0  0  0  0  0  0  0  0
   34.9830   39.9780   20.6320 H   0  0  0  0  0  0  0  0  0  0  0  0
   33.6340   40.7050   24.9490 H   0  0  0  0  0  0  0  0  0  0  0  0
   38.3820   37.2830   14.8390 F   0  0  0  0  0  0  0  0  0  0  0  0
   32.1260   38.9200   28.3150 C   0  0  0  0  0  0  0  0  0  0  0  0
   32.2190   39.6010   26.9450 C   0  0  0  0  0  0  0  0  0  0  0  0
   33.3070   38.9130   26.0930 C   0  0  0  0  0  0  0  0  0  0  0  0
   34.6480   38.8710   26.8620 C   0  0  0  0  0  0  0  0  0  0  0  0
   34.4410   38.2390   28.2440 C   0  0  0  0  0  0  0  0  0  0  0  0
   33.4040   38.9150   28.9930 O   0  0  0  0  0  0  0  0  0  0  0  0
   31.7640   37.8700   28.2160 H   0  0  0  0  0  0  0  0  0  0  0  0
   31.4890   39.5050   29.0170 H   0  0  0  0  0  0  0  0  0  0  0  0
   32.4680   40.6800   27.0770 H   0  0  0  0  0  0  0  0  0  0  0  0
   31.2360   39.5280   26.4210 H   0  0  0  0  0  0  0  0  0  0  0  0
   32.9770   37.8650   25.8490 H   0  0  0  0  0  0  0  0  0  0  0  0
   35.3920   38.2670   26.2910 H   0  0  0  0  0  0  0  0  0  0  0  0
   35.0480   39.9070   26.9760 H   0  0  0  0  0  0  0  0  0  0  0  0
   34.1750   37.1600   28.1520 H   0  0  0  0  0  0  0  0  0  0  0  0
   35.3350   38.3860   28.8930 H   0  0  0  0  0  0  0  0  0  0  0  0
   33.1460   34.9620   23.2060 C   0  0  0  0  0  0  0  0  0  0  0  0
   32.6230   35.6700   23.9110 H   0  0  0  0  0  0  0  0  0  0  0  0
   32.3560   34.3780   22.6560 H   0  0  0  0  0  0  0  0  0  0  0  0
   34.0260   33.9960   24.0070 C   0  0  0  0  0  0  0  0  0  0  0  0
   33.3500   33.2340   24.4780 H   0  0  0  0  0  0  0  0  0  0  0  0
   34.7430   33.4540   23.3440 H   0  0  0  0  0  0  0  0  0  0  0  0
   34.8120   34.6990   25.1160 C   0  0  0  0  0  0  0  0  0  0  0  0
   35.4660   35.5110   24.7300 H   0  0  0  0  0  0  0  0  0  0  0  0
   34.1440   35.0750   25.9260 H   0  0  0  0  0  0  0  0  0  0  0  0
   35.6760   33.6660   25.6500 O   0  0  0  0  0  0  0  0  0  0  0  0
   35.9560   33.9470   26.5710 H   0  0  0  0  0  0  0  0  0  0  0  0
  1  3  2  0  0  0  0
  1  7  1  0  0  0  0
  1 21  1  0  0  0  0
  2 12  1  0  0  0  0
  2 17  2  0  0  0  0
  2 18  1  0  0  0  0
  3 13  1  0  0  0  0
  3 14  1  0  0  0  0
  4 16  2  0  0  0  0
  4 19  1  0  0  0  0
  4 20  1  0  0  0  0
  5  6  1  0  0  0  0
  5 10  1  0  0  0  0
  5 11  2  0  0  0  0
  6 12  2  0  0  0  0
  6 22  1  0  0  0  0
  7  8  2  0  0  0  0
  7 27  1  0  0  0  0
  8  9  1  0  0  0  0
  8 23  1  0  0  0  0
  9 13  2  0  0  0  0
  9 24  1  0  0  0  0
 10 18  1  0  0  0  0
 10 19  2  0  0  0  0
 11 16  1  0  0  0  0
 11 25  1  0  0  0  0
 12 15  1  0  0  0  0
 13 15  1  0  0  0  0
 18 43  1  0  0  0  0
 20 26  1  0  0  0  0
 20 30  1  0  0  0  0
 28 29  1  0  0  0  0
 28 33  1  0  0  0  0
 28 34  1  0  0  0  0
 28 35  1  0  0  0  0
 29 30  1  0  0  0  0
 29 36  1  0  0  0  0
 29 37  1  0  0  0  0
 30 31  1  0  0  0  0
 30 38  1  0  0  0  0
 31 32  1  0  0  0  0
 31 39  1  0  0  0  0
 31 40  1  0  0  0  0
 32 33  1  0  0  0  0
 32 41  1  0  0  0  0
 32 42  1  0  0  0  0
 43 44  1  0  0  0  0
 43 45  1  0  0  0  0
 43 46  1  0  0  0  0
 46 47  1  0  0  0  0
 46 48  1  0  0  0  0
 46 49  1  0  0  0  0
 49 50  1  0  0  0  0
 49 51  1  0  0  0  0
 49 52  1  0  0  0  0
 52 53  1  0  0  0  0
M  END
$$$$
