p38a_2e
 OpenBabel02232411163D
Structure written by MMmdl.
 46 49  0  0  0  0  0  0  0  0999 V2000
   32.4380   39.7570   27.0770 C   0  0  0  0  0  0  0  0  0  0  0  0
   32.3860   39.1120   28.4670 C   0  0  0  0  0  0  0  0  0  0  0  0
   34.7210   38.5010   28.3760 C   0  0  0  0  0  0  0  0  0  0  0  0
   34.8880   39.1090   26.9780 C   0  0  0  0  0  0  0  0  0  0  0  0
   36.3200   36.3020   15.7330 C   0  0  0  0  0  0  0  0  0  0  0  0
   33.6730   39.1600   29.1240 O   0  0  0  0  0  0  0  0  0  0  0  0
   34.5480   35.0790   21.2530 C   0  0  0  0  0  0  0  0  0  0  0  0
   35.5510   35.8360   16.8020 C   0  0  0  0  0  0  0  0  0  0  0  0
   34.0220   39.1810   23.7650 C   0  0  0  0  0  0  0  0  0  0  0  0
   33.5360   39.0790   26.2300 C   0  0  0  0  0  0  0  0  0  0  0  0
   34.6750   37.9560   21.3820 C   0  0  0  0  0  0  0  0  0  0  0  0
   35.0660   37.2850   20.1730 C   0  0  0  0  0  0  0  0  0  0  0  0
   37.6590   36.6270   15.9710 C   0  0  0  0  0  0  0  0  0  0  0  0
   38.2760   36.4890   17.2200 C   0  0  0  0  0  0  0  0  0  0  0  0
   37.5020   36.0370   18.2910 C   0  0  0  0  0  0  0  0  0  0  0  0
   34.3180   37.1960   22.5350 C   0  0  0  0  0  0  0  0  0  0  0  0
   34.6370   39.3710   21.5100 C   0  0  0  0  0  0  0  0  0  0  0  0
   35.0340   35.9320   20.1360 C   0  0  0  0  0  0  0  0  0  0  0  0
   36.1580   35.7140   18.0570 C   0  0  0  0  0  0  0  0  0  0  0  0
   33.8970   35.0290   23.6940 C   0  0  0  0  0  0  0  0  0  0  0  0
   34.4930   35.6010   16.6560 H   0  0  0  0  0  0  0  0  0  0  0  0
   38.3680   37.1410   14.9650 F   0  0  0  0  0  0  0  0  0  0  0  0
   35.3820   35.1120   19.0700 O   0  0  0  0  0  0  0  0  0  0  0  0
   34.3250   39.9950   22.6550 N   0  0  0  0  0  0  0  0  0  0  0  0
   34.3790   33.8800   21.2050 O   0  0  0  0  0  0  0  0  0  0  0  0
   34.2650   35.7940   22.4690 N   0  0  0  0  0  0  0  0  0  0  0  0
   34.0130   37.8000   23.7280 N   0  0  0  0  0  0  0  0  0  0  0  0
   33.6460   39.8110   24.9310 N   0  0  0  0  0  0  0  0  0  0  0  0
   31.4500   39.6430   26.5710 H   0  0  0  0  0  0  0  0  0  0  0  0
   32.6570   40.8470   27.1800 H   0  0  0  0  0  0  0  0  0  0  0  0
   31.7440   39.7000   29.1620 H   0  0  0  0  0  0  0  0  0  0  0  0
   32.0510   38.0500   28.4020 H   0  0  0  0  0  0  0  0  0  0  0  0
   34.4890   37.4130   28.3120 H   0  0  0  0  0  0  0  0  0  0  0  0
   35.6190   38.6910   29.0090 H   0  0  0  0  0  0  0  0  0  0  0  0
   35.2500   40.1610   27.0610 H   0  0  0  0  0  0  0  0  0  0  0  0
   35.6470   38.5180   26.4110 H   0  0  0  0  0  0  0  0  0  0  0  0
   35.8690   36.4270   14.7480 H   0  0  0  0  0  0  0  0  0  0  0  0
   33.2390   38.0110   26.0280 H   0  0  0  0  0  0  0  0  0  0  0  0
   35.3890   37.8940   19.3250 H   0  0  0  0  0  0  0  0  0  0  0  0
   39.3240   36.7620   17.3670 H   0  0  0  0  0  0  0  0  0  0  0  0
   37.9340   35.9730   19.2910 H   0  0  0  0  0  0  0  0  0  0  0  0
   34.8690   40.0060   20.6380 H   0  0  0  0  0  0  0  0  0  0  0  0
   34.6240   35.2590   24.5200 H   0  0  0  0  0  0  0  0  0  0  0  0
   32.8680   35.3230   24.0390 H   0  0  0  0  0  0  0  0  0  0  0  0
   33.9140   33.9280   23.4860 H   0  0  0  0  0  0  0  0  0  0  0  0
   33.7600   40.8410   25.0140 H   0  0  0  0  0  0  0  0  0  0  0  0
  1  2  1  0  0  0  0
  1 10  1  0  0  0  0
  1 29  1  0  0  0  0
  1 30  1  0  0  0  0
  2  6  1  0  0  0  0
  2 31  1  0  0  0  0
  2 32  1  0  0  0  0
  3  4  1  0  0  0  0
  3  6  1  0  0  0  0
  3 33  1  0  0  0  0
  3 34  1  0  0  0  0
  4 10  1  0  0  0  0
  4 35  1  0  0  0  0
  4 36  1  0  0  0  0
  5  8  2  0  0  0  0
  5 13  1  0  0  0  0
  5 37  1  0  0  0  0
  7 18  1  0  0  0  0
  7 25  2  0  0  0  0
  7 26  1  0  0  0  0
  8 19  1  0  0  0  0
  8 21  1  0  0  0  0
  9 24  2  0  0  0  0
  9 27  1  0  0  0  0
  9 28  1  0  0  0  0
 10 28  1  0  0  0  0
 10 38  1  0  0  0  0
 11 12  1  0  0  0  0
 11 16  1  0  0  0  0
 11 17  2  0  0  0  0
 12 18  2  0  0  0  0
 12 39  1  0  0  0  0
 13 14  2  0  0  0  0
 13 22  1  0  0  0  0
 14 15  1  0  0  0  0
 14 40  1  0  0  0  0
 15 19  2  0  0  0  0
 15 41  1  0  0  0  0
 16 26  1  0  0  0  0
 16 27  2  0  0  0  0
 17 24  1  0  0  0  0
 17 42  1  0  0  0  0
 18 23  1  0  0  0  0
 19 23  1  0  0  0  0
 20 26  1  0  0  0  0
 20 43  1  0  0  0  0
 20 44  1  0  0  0  0
 20 45  1  0  0  0  0
 28 46  1  0  0  0  0
M  END
$$$$
