CAT-13o
                    3D
 Schrodinger Suite 2022-3.
 42 45  0  0  1  0  0  0  0  0999 V2000
   11.7170   -2.5250    1.4020 C   0  0  0  0  0  0  0  0  0  0  0  0
   12.9940   -2.8510    0.7330 N   0  0  0  0  0  0  0  0  0  0  0  0
   14.2120   -2.7810    1.4130 C   0  0  0  0  0  0  0  0  0  0  0  0
   14.3760   -2.6770    2.7620 N   0  0  0  0  0  0  0  0  0  0  0  0
   15.2600   -2.9200    0.5150 N   0  3  0  0  0  0  0  0  0  0  0  0
   14.7630   -3.1920   -0.8840 C   0  0  1  0  0  0  0  0  0  0  0  0
   15.2540   -2.1070   -1.8230 C   0  0  0  0  0  0  0  0  0  0  0  0
   15.8420   -2.3900   -3.0580 C   0  0  0  0  0  0  0  0  0  0  0  0
   16.2220   -1.3310   -3.8950 C   0  0  0  0  0  0  0  0  0  0  0  0
   16.0110   -0.0060   -3.5170 C   0  0  0  0  0  0  0  0  0  0  0  0
   15.4150    0.2880   -2.2760 C   0  0  0  0  0  0  0  0  0  0  0  0
   15.1680    1.6840   -1.8480 C   0  0  0  0  0  0  0  0  0  0  0  0
   14.5730    2.6090   -2.7210 C   0  0  0  0  0  0  0  0  0  0  0  0
   14.3260    3.9210   -2.3000 C   0  0  0  0  0  0  0  0  0  0  0  0
   14.6470    4.3240   -1.0000 C   0  0  0  0  0  0  0  0  0  0  0  0
   15.2200    3.3870   -0.1370 C   0  0  0  0  0  0  0  0  0  0  0  0
   15.5480    3.8270    1.4970 Cl  0  0  0  0  0  0  0  0  0  0  0  0
   15.5010    2.0820   -0.5430 C   0  0  0  0  0  0  0  0  0  0  0  0
   15.0430   -0.7700   -1.4380 C   0  0  0  0  0  0  0  0  0  0  0  0
   15.0620   -4.6130   -1.2400 C   0  0  0  0  0  0  0  0  0  0  0  0
   14.1460   -5.5070   -1.5920 N   0  0  0  0  0  0  0  0  0  0  0  0
   14.7650   -6.7660   -1.7590 C   0  0  0  0  0  0  0  0  0  0  0  0
   16.1140   -6.8100   -1.5200 C   0  0  0  0  0  0  0  0  0  0  0  0
   16.7330   -5.2410   -1.1040 S   0  0  0  0  0  0  0  0  0  0  0  0
   13.2020   -3.0240   -0.7150 C   0  0  0  0  0  0  0  0  0  0  0  0
   12.3170   -3.0220   -1.5030 O   0  0  0  0  0  0  0  0  0  0  0  0
   10.8580   -2.8410    0.7530 H   0  0  0  0  0  0  0  0  0  0  0  0
   11.6480   -3.0690    2.3840 H   0  0  0  0  0  0  0  0  0  0  0  0
   11.6760   -1.4190    1.5860 H   0  0  0  0  0  0  0  0  0  0  0  0
   15.3540   -2.5630    3.1460 H   0  0  0  0  0  0  0  0  0  0  0  0
   16.2400   -3.1080    0.8450 H   0  0  0  0  0  0  0  0  0  0  0  0
   16.0090   -3.4200   -3.3820 H   0  0  0  0  0  0  0  0  0  0  0  0
   16.6960   -1.5470   -4.8580 H   0  0  0  0  0  0  0  0  0  0  0  0
   16.3170    0.8060   -4.1870 H   0  0  0  0  0  0  0  0  0  0  0  0
   14.2850    2.3000   -3.7300 H   0  0  0  0  0  0  0  0  0  0  0  0
   13.8650    4.6330   -2.9950 H   0  0  0  0  0  0  0  0  0  0  0  0
   14.4380    5.3440   -0.6670 H   0  0  0  0  0  0  0  0  0  0  0  0
   15.9560    1.3660    0.1410 H   0  0  0  0  0  0  0  0  0  0  0  0
   14.5840   -0.5600   -0.4730 H   0  0  0  0  0  0  0  0  0  0  0  0
   14.1400   -7.6180   -2.0490 H   0  0  0  0  0  0  0  0  0  0  0  0
   16.7570   -7.6840   -1.5520 H   0  0  0  0  0  0  0  0  0  0  0  0
   13.6570   -2.1900    3.3540 H   0  0  0  0  0  0  0  0  0  0  0  0
  1  2  1  0  0  0  0
  1 27  1  0  0  0  0
  1 28  1  0  0  0  0
  1 29  1  0  0  0  0
  2  3  1  0  0  0  0
  2 25  1  0  0  0  0
  3  4  1  0  0  0  0
  3  5  2  0  0  0  0
  4 30  1  0  0  0  0
  4 42  1  0  0  0  0
  5  6  1  0  0  0  0
  5 31  1  0  0  0  0
  6  7  1  0  0  0  0
  6 20  1  0  0  0  0
  6 25  1  0  0  0  0
  7  8  2  0  0  0  0
  7 19  1  0  0  0  0
  8  9  1  0  0  0  0
  8 32  1  0  0  0  0
  9 10  2  0  0  0  0
  9 33  1  0  0  0  0
 10 11  1  0  0  0  0
 10 34  1  0  0  0  0
 11 12  1  0  0  0  0
 11 19  2  0  0  0  0
 12 13  2  0  0  0  0
 12 18  1  0  0  0  0
 13 14  1  0  0  0  0
 13 35  1  0  0  0  0
 14 15  2  0  0  0  0
 14 36  1  0  0  0  0
 15 16  1  0  0  0  0
 15 37  1  0  0  0  0
 16 17  1  0  0  0  0
 16 18  2  0  0  0  0
 18 38  1  0  0  0  0
 19 39  1  0  0  0  0
 20 21  2  0  0  0  0
 20 24  1  0  0  0  0
 21 22  1  0  0  0  0
 22 23  2  0  0  0  0
 22 40  1  0  0  0  0
 23 24  1  0  0  0  0
 23 41  1  0  0  0  0
 25 26  2  0  0  0  0
M  CHG  1   5   1
M  END
$$$$
