p38a_2x
 OpenBabel02232411163D
Structure written by MMmdl.
 43 46  0  0  1  0  0  0  0  0999 V2000
   36.3480   36.0080   15.8350 C   0  0  0  0  0  0  0  0  0  0  0  0
   34.5990   35.0330   21.4380 C   0  0  0  0  0  0  0  0  0  0  0  0
   35.6400   35.5570   16.9440 C   0  0  0  0  0  0  0  0  0  0  0  0
   34.3870   39.1290   23.9950 C   0  0  0  0  0  0  0  0  0  0  0  0
   34.8000   37.8980   21.5680 C   0  0  0  0  0  0  0  0  0  0  0  0
   35.1390   37.2250   20.3440 C   0  0  0  0  0  0  0  0  0  0  0  0
   37.6430   36.4860   16.0720 C   0  0  0  0  0  0  0  0  0  0  0  0
   38.2450   36.4870   17.3330 C   0  0  0  0  0  0  0  0  0  0  0  0
   37.5000   36.0610   18.4390 C   0  0  0  0  0  0  0  0  0  0  0  0
   34.5240   37.1420   22.7460 C   0  0  0  0  0  0  0  0  0  0  0  0
   34.7390   39.3130   21.6850 C   0  0  0  0  0  0  0  0  0  0  0  0
   35.0860   35.8730   20.3110 C   0  0  0  0  0  0  0  0  0  0  0  0
   36.1950   35.6000   18.2390 C   0  0  0  0  0  0  0  0  0  0  0  0
   34.1420   34.9740   23.9220 C   0  0  0  0  0  0  0  0  0  0  0  0
   34.4180   35.0590   16.8080 F   0  0  0  0  0  0  0  0  0  0  0  0
   35.4030   35.0330   19.2450 O   0  0  0  0  0  0  0  0  0  0  0  0
   34.5240   39.9410   22.8510 N   0  0  0  0  0  0  0  0  0  0  0  0
   34.3450   33.8500   21.3750 O   0  0  0  0  0  0  0  0  0  0  0  0
   34.4290   35.7430   22.6790 N   0  0  0  0  0  0  0  0  0  0  0  0
   34.3230   37.7500   23.9620 N   0  0  0  0  0  0  0  0  0  0  0  0
   34.3500   39.7660   25.2160 N   0  0  0  0  0  0  0  0  0  0  0  0
   35.9080   36.0160   14.8350 H   0  0  0  0  0  0  0  0  0  0  0  0
   35.4500   37.8330   19.4900 H   0  0  0  0  0  0  0  0  0  0  0  0
   39.2700   36.8460   17.4630 H   0  0  0  0  0  0  0  0  0  0  0  0
   37.9340   36.1160   19.4390 H   0  0  0  0  0  0  0  0  0  0  0  0
   34.8660   39.9450   20.7890 H   0  0  0  0  0  0  0  0  0  0  0  0
   34.9010   35.2270   24.7120 H   0  0  0  0  0  0  0  0  0  0  0  0
   33.1220   35.2400   24.3120 H   0  0  0  0  0  0  0  0  0  0  0  0
   34.1840   33.8730   23.7170 H   0  0  0  0  0  0  0  0  0  0  0  0
   34.1640   40.7890   25.2570 H   0  0  0  0  0  0  0  0  0  0  0  0
   38.3170   36.9990   15.0450 F   0  0  0  0  0  0  0  0  0  0  0  0
   32.5430   39.0130   28.2250 O   0  0  0  0  0  0  0  0  0  0  0  0
   33.4690   40.0770   28.5750 C   0  0  0  0  0  0  0  0  0  0  0  0
   34.7010   39.9130   27.6730 C   0  0  0  0  0  0  0  0  0  0  0  0
   34.2280   39.0230   26.4980 C   0  0  1  0  0  0  0  0  0  0  0  0
   32.7510   38.6690   26.8320 C   0  0  0  0  0  0  0  0  0  0  0  0
   33.6870   39.9170   29.6520 H   0  0  0  0  0  0  0  0  0  0  0  0
   32.9580   41.0480   28.3920 H   0  0  0  0  0  0  0  0  0  0  0  0
   35.0720   40.9080   27.3280 H   0  0  0  0  0  0  0  0  0  0  0  0
   35.5390   39.4160   28.2150 H   0  0  0  0  0  0  0  0  0  0  0  0
   34.8570   38.0940   26.4350 H   0  0  0  0  0  0  0  0  0  0  0  0
   32.5520   37.5760   26.7800 H   0  0  0  0  0  0  0  0  0  0  0  0
   32.0310   39.2590   26.2240 H   0  0  0  0  0  0  0  0  0  0  0  0
  1  3  2  0  0  0  0
  1  7  1  0  0  0  0
  1 22  1  0  0  0  0
  2 12  1  0  0  0  0
  2 18  2  0  0  0  0
  2 19  1  0  0  0  0
  3 13  1  0  0  0  0
  3 15  1  0  0  0  0
  4 17  2  0  0  0  0
  4 20  1  0  0  0  0
  4 21  1  0  0  0  0
  5  6  1  0  0  0  0
  5 10  1  0  0  0  0
  5 11  2  0  0  0  0
  6 12  2  0  0  0  0
  6 23  1  0  0  0  0
  7  8  2  0  0  0  0
  7 31  1  0  0  0  0
  8  9  1  0  0  0  0
  8 24  1  0  0  0  0
  9 13  2  0  0  0  0
  9 25  1  0  0  0  0
 10 19  1  0  0  0  0
 10 20  2  0  0  0  0
 11 17  1  0  0  0  0
 11 26  1  0  0  0  0
 12 16  1  0  0  0  0
 13 16  1  0  0  0  0
 14 19  1  0  0  0  0
 14 27  1  0  0  0  0
 14 28  1  0  0  0  0
 14 29  1  0  0  0  0
 21 30  1  0  0  0  0
 21 35  1  0  0  0  0
 32 33  1  0  0  0  0
 32 36  1  0  0  0  0
 33 34  1  0  0  0  0
 33 37  1  0  0  0  0
 33 38  1  0  0  0  0
 34 35  1  0  0  0  0
 34 39  1  0  0  0  0
 34 40  1  0  0  0  0
 35 36  1  0  0  0  0
 35 41  1  1  0  0  0
 36 42  1  0  0  0  0
 36 43  1  0  0  0  0
M  END
$$$$
