18660-1
 OpenBabel02232411163D
Structure written by MMmdl.
 52 53  0  0  0  0  0  0  0  0999 V2000
   24.9330   13.8240   27.6510 C   0  0  0  0  0  0  0  0  0  0  0  0
   25.1710   12.3670   28.5600 S   0  0  0  0  0  0  0  0  0  0  0  0
   26.2190   12.5950   29.5650 O   0  0  0  0  0  0  0  0  0  0  0  0
   25.4740   11.2400   27.6700 O   0  0  0  0  0  0  0  0  0  0  0  0
   23.6280   12.1430   29.3990 C   0  0  0  0  0  0  0  0  0  0  0  0
   23.6020   10.9260   30.3110 C   0  0  0  0  0  0  0  0  0  0  0  0
   22.3680   11.0990   31.1270 O   0  0  0  0  0  0  0  0  0  0  0  0
   21.6710    9.9960   31.4950 C   0  0  0  0  0  0  0  0  0  0  0  0
   22.1000    8.7860   31.0730 N   0  0  0  0  0  0  0  0  0  0  0  0
   21.3320    7.6780   31.4030 C   0  0  0  0  0  0  0  0  0  0  0  0
   20.1830    7.7710   32.1830 C   0  0  0  0  0  0  0  0  0  0  0  0
   19.7510    9.0420   32.6440 C   0  0  0  0  0  0  0  0  0  0  0  0
   18.6170    9.1330   33.4120 N   0  0  0  0  0  0  0  0  0  0  0  0
   20.5060   10.2100   32.2880 C   0  0  0  0  0  0  0  0  0  0  0  0
   20.1340   11.5210   32.6510 C   0  0  0  0  0  0  0  0  0  0  0  0
   19.8660   12.6160   32.9240 N   0  0  0  0  0  0  0  0  0  0  0  0
   21.8560    6.4950   30.8450 N   0  0  0  0  0  0  0  0  0  0  0  0
   21.2160    5.2320   30.8040 C   0  0  0  0  0  0  0  0  0  0  0  0
   20.1420    5.0320   31.3280 O   0  0  0  0  0  0  0  0  0  0  0  0
   21.9690    4.2000   29.9800 C   0  0  0  0  0  0  0  0  0  0  0  0
   23.2710    3.7950   30.6070 C   0  0  0  0  0  0  0  0  0  0  0  0
   24.4400    4.5600   30.3880 C   0  0  0  0  0  0  0  0  0  0  0  0
   24.2390    5.6330   29.5270 O   0  0  0  0  0  0  0  0  0  0  0  0
   25.3270    6.5820   29.3660 C   0  0  0  0  0  0  0  0  0  0  0  0
   25.6630    4.2230   30.9820 C   0  0  0  0  0  0  0  0  0  0  0  0
   25.7390    3.0980   31.7980 C   0  0  0  0  0  0  0  0  0  0  0  0
   24.5850    2.3160   31.9970 C   0  0  0  0  0  0  0  0  0  0  0  0
   23.3590    2.6510   31.4070 C   0  0  0  0  0  0  0  0  0  0  0  0
   24.8080    1.2410   32.8340 O   0  0  0  0  0  0  0  0  0  0  0  0
   23.7610    0.2420   32.9460 C   0  0  0  0  0  0  0  0  0  0  0  0
   24.9060   14.7450   28.2960 H   0  0  0  0  0  0  0  0  0  0  0  0
   23.9790   13.8360   27.0680 H   0  0  0  0  0  0  0  0  0  0  0  0
   25.7690   14.0150   26.9220 H   0  0  0  0  0  0  0  0  0  0  0  0
   23.3630   13.0680   29.9860 H   0  0  0  0  0  0  0  0  0  0  0  0
   22.7980   12.0390   28.6370 H   0  0  0  0  0  0  0  0  0  0  0  0
   24.4160   10.9130   31.0720 H   0  0  0  0  0  0  0  0  0  0  0  0
   23.5450    9.9770   29.7240 H   0  0  0  0  0  0  0  0  0  0  0  0
   19.5960    6.8830   32.4330 H   0  0  0  0  0  0  0  0  0  0  0  0
   18.2510   10.0360   33.7140 H   0  0  0  0  0  0  0  0  0  0  0  0
   18.0820    8.2840   33.6770 H   0  0  0  0  0  0  0  0  0  0  0  0
   22.7870    6.5950   30.3660 H   0  0  0  0  0  0  0  0  0  0  0  0
   21.3150    3.3000   29.8500 H   0  0  0  0  0  0  0  0  0  0  0  0
   22.1700    4.6440   28.9670 H   0  0  0  0  0  0  0  0  0  0  0  0
   26.1880    6.0820   28.8730 H   0  0  0  0  0  0  0  0  0  0  0  0
   24.8560    7.3380   28.6970 H   0  0  0  0  0  0  0  0  0  0  0  0
   25.5990    7.0230   30.3490 H   0  0  0  0  0  0  0  0  0  0  0  0
   26.5640    4.8190   30.8140 H   0  0  0  0  0  0  0  0  0  0  0  0
   26.6870    2.8230   32.2700 H   0  0  0  0  0  0  0  0  0  0  0  0
   22.4770    2.0300   31.5670 H   0  0  0  0  0  0  0  0  0  0  0  0
   24.2400   -0.5090   33.6190 H   0  0  0  0  0  0  0  0  0  0  0  0
   22.8570    0.6810   33.4180 H   0  0  0  0  0  0  0  0  0  0  0  0
   23.5460   -0.1960   31.9480 H   0  0  0  0  0  0  0  0  0  0  0  0
  1  2  1  0  0  0  0
  1 31  1  0  0  0  0
  1 32  1  0  0  0  0
  1 33  1  0  0  0  0
  2  3  2  0  0  0  0
  2  4  2  0  0  0  0
  2  5  1  0  0  0  0
  5  6  1  0  0  0  0
  5 34  1  0  0  0  0
  5 35  1  0  0  0  0
  6  7  1  0  0  0  0
  6 36  1  0  0  0  0
  6 37  1  0  0  0  0
  7  8  1  0  0  0  0
  8 14  2  0  0  0  0
  8  9  1  0  0  0  0
  9 10  2  0  0  0  0
 10 11  1  0  0  0  0
 10 17  1  0  0  0  0
 11 12  2  0  0  0  0
 11 38  1  0  0  0  0
 12 13  1  0  0  0  0
 12 14  1  0  0  0  0
 13 39  1  0  0  0  0
 13 40  1  0  0  0  0
 14 15  1  0  0  0  0
 15 16  3  0  0  0  0
 17 18  1  0  0  0  0
 17 41  1  0  0  0  0
 18 19  2  0  0  0  0
 18 20  1  0  0  0  0
 20 21  1  0  0  0  0
 20 42  1  0  0  0  0
 20 43  1  0  0  0  0
 21 28  2  0  0  0  0
 21 22  1  0  0  0  0
 22 23  1  0  0  0  0
 22 25  2  0  0  0  0
 23 24  1  0  0  0  0
 24 44  1  0  0  0  0
 24 45  1  0  0  0  0
 24 46  1  0  0  0  0
 25 26  1  0  0  0  0
 25 47  1  0  0  0  0
 26 27  2  0  0  0  0
 26 48  1  0  0  0  0
 27 28  1  0  0  0  0
 27 29  1  0  0  0  0
 28 49  1  0  0  0  0
 29 30  1  0  0  0  0
 30 50  1  0  0  0  0
 30 51  1  0  0  0  0
 30 52  1  0  0  0  0
M  END
$$$$
