18639-1
 OpenBabel02232411163D
Structure written by MMmdl.
 48 49  0  0  0  0  0  0  0  0999 V2000
   23.2060   10.7850   29.0610 C   0  0  0  0  0  0  0  0  0  0  0  0
   23.4840   11.0360   30.5290 C   0  0  0  0  0  0  0  0  0  0  0  0
   22.2200   11.1480   31.2870 O   0  0  0  0  0  0  0  0  0  0  0  0
   21.5600   10.0210   31.6340 C   0  0  0  0  0  0  0  0  0  0  0  0
   22.0270    8.8230   31.2150 N   0  0  0  0  0  0  0  0  0  0  0  0
   21.2810    7.6980   31.5280 C   0  0  0  0  0  0  0  0  0  0  0  0
   20.1140    7.7540   32.2820 C   0  0  0  0  0  0  0  0  0  0  0  0
   19.6440    9.0150   32.7410 C   0  0  0  0  0  0  0  0  0  0  0  0
   18.4900    9.0740   33.4790 N   0  0  0  0  0  0  0  0  0  0  0  0
   20.3760   10.2000   32.4090 C   0  0  0  0  0  0  0  0  0  0  0  0
   19.9820   11.5060   32.7700 C   0  0  0  0  0  0  0  0  0  0  0  0
   19.7080   12.6040   33.0250 N   0  0  0  0  0  0  0  0  0  0  0  0
   21.8570    6.5300   30.9780 N   0  0  0  0  0  0  0  0  0  0  0  0
   21.2520    5.2610   30.8740 C   0  0  0  0  0  0  0  0  0  0  0  0
   20.1540    5.0160   31.3250 O   0  0  0  0  0  0  0  0  0  0  0  0
   22.0780    4.2620   30.0720 C   0  0  0  0  0  0  0  0  0  0  0  0
   23.4470    3.9950   30.6260 C   0  0  0  0  0  0  0  0  0  0  0  0
   24.5420    4.8580   30.3030 C   0  0  0  0  0  0  0  0  0  0  0  0
   24.1820    5.9030   29.4610 O   0  0  0  0  0  0  0  0  0  0  0  0
   25.1320    6.9920   29.2980 C   0  0  0  0  0  0  0  0  0  0  0  0
   25.8230    4.6200   30.7760 C   0  0  0  0  0  0  0  0  0  0  0  0
   26.0560    3.5070   31.6110 C   0  0  0  0  0  0  0  0  0  0  0  0
   27.4100    3.2550   32.1140 N   0  3  0  0  0  0  0  0  0  0  0  0
   27.5450    2.4710   33.0410 O   0  5  0  0  0  0  0  0  0  0  0  0
   28.3490    3.8340   31.5800 O   0  0  0  0  0  0  0  0  0  0  0  0
   24.9870    2.6410   31.9360 C   0  0  0  0  0  0  0  0  0  0  0  0
   23.6910    2.8920   31.4280 C   0  0  0  0  0  0  0  0  0  0  0  0
   25.3370    1.6050   32.7490 O   0  0  0  0  0  0  0  0  0  0  0  0
   24.3410    0.5690   32.9950 C   0  0  0  0  0  0  0  0  0  0  0  0
   24.1660   10.8400   28.4910 H   0  0  0  0  0  0  0  0  0  0  0  0
   22.5110   11.5480   28.6440 H   0  0  0  0  0  0  0  0  0  0  0  0
   22.7650    9.7740   28.9010 H   0  0  0  0  0  0  0  0  0  0  0  0
   23.8950   12.0580   30.7120 H   0  0  0  0  0  0  0  0  0  0  0  0
   24.1190   10.2390   30.9790 H   0  0  0  0  0  0  0  0  0  0  0  0
   19.5440    6.8510   32.5070 H   0  0  0  0  0  0  0  0  0  0  0  0
   17.9830    8.2070   33.7460 H   0  0  0  0  0  0  0  0  0  0  0  0
   18.0990    9.9640   33.7860 H   0  0  0  0  0  0  0  0  0  0  0  0
   22.7810    6.6760   30.4980 H   0  0  0  0  0  0  0  0  0  0  0  0
   21.5070    3.2970   30.0130 H   0  0  0  0  0  0  0  0  0  0  0  0
   22.1860    4.6760   29.0290 H   0  0  0  0  0  0  0  0  0  0  0  0
   25.4500    7.3870   30.2870 H   0  0  0  0  0  0  0  0  0  0  0  0
   25.9880    6.6400   28.6840 H   0  0  0  0  0  0  0  0  0  0  0  0
   24.5130    7.7390   28.7490 H   0  0  0  0  0  0  0  0  0  0  0  0
   26.6610    5.2720   30.5050 H   0  0  0  0  0  0  0  0  0  0  0  0
   22.8760    2.2030   31.6660 H   0  0  0  0  0  0  0  0  0  0  0  0
   24.9280   -0.1620   33.6010 H   0  0  0  0  0  0  0  0  0  0  0  0
   23.4930    0.9840   33.5810 H   0  0  0  0  0  0  0  0  0  0  0  0
   24.0130    0.1180   32.0330 H   0  0  0  0  0  0  0  0  0  0  0  0
  1  2  1  0  0  0  0
  1 30  1  0  0  0  0
  1 31  1  0  0  0  0
  1 32  1  0  0  0  0
  2  3  1  0  0  0  0
  2 33  1  0  0  0  0
  2 34  1  0  0  0  0
  3  4  1  0  0  0  0
  4 10  2  0  0  0  0
  4  5  1  0  0  0  0
  5  6  2  0  0  0  0
  6  7  1  0  0  0  0
  6 13  1  0  0  0  0
  7  8  2  0  0  0  0
  7 35  1  0  0  0  0
  8  9  1  0  0  0  0
  8 10  1  0  0  0  0
  9 36  1  0  0  0  0
  9 37  1  0  0  0  0
 10 11  1  0  0  0  0
 11 12  3  0  0  0  0
 13 14  1  0  0  0  0
 13 38  1  0  0  0  0
 14 15  2  0  0  0  0
 14 16  1  0  0  0  0
 16 17  1  0  0  0  0
 16 39  1  0  0  0  0
 16 40  1  0  0  0  0
 17 27  2  0  0  0  0
 17 18  1  0  0  0  0
 18 19  1  0  0  0  0
 18 21  2  0  0  0  0
 19 20  1  0  0  0  0
 20 41  1  0  0  0  0
 20 42  1  0  0  0  0
 20 43  1  0  0  0  0
 21 22  1  0  0  0  0
 21 44  1  0  0  0  0
 22 23  1  0  0  0  0
 22 26  2  0  0  0  0
 23 24  1  0  0  0  0
 23 25  2  0  0  0  0
 26 27  1  0  0  0  0
 26 28  1  0  0  0  0
 27 45  1  0  0  0  0
 28 29  1  0  0  0  0
 29 46  1  0  0  0  0
 29 47  1  0  0  0  0
 29 48  1  0  0  0  0
M  CHG  2  23   1  24  -1
M  END
$$$$
