CAT-17h
                    3D
 Schrodinger Suite 2022-3.
 42 45  0  0  1  0  0  0  0  0999 V2000
   11.7900   -2.4770    1.3230 C   0  0  0  0  0  0  0  0  0  0  0  0
   13.0610   -2.8760    0.6860 N   0  0  0  0  0  0  0  0  0  0  0  0
   14.2680   -2.8400    1.3980 C   0  0  0  0  0  0  0  0  0  0  0  0
   14.3970   -2.7230    2.7510 N   0  0  0  0  0  0  0  0  0  0  0  0
   15.3260   -3.0370    0.5310 N   0  3  0  0  0  0  0  0  0  0  0  0
   14.8640   -3.2530   -0.8880 C   0  0  1  0  0  0  0  0  0  0  0  0
   15.4460   -2.1350   -1.7330 C   0  0  0  0  0  0  0  0  0  0  0  0
   16.3540   -2.3930   -2.7650 C   0  0  0  0  0  0  0  0  0  0  0  0
   16.8500   -1.3320   -3.5330 C   0  0  0  0  0  0  0  0  0  0  0  0
   16.4640   -0.0180   -3.2650 C   0  0  0  0  0  0  0  0  0  0  0  0
   15.5850    0.2510   -2.2010 C   0  0  0  0  0  0  0  0  0  0  0  0
   15.2150    1.6350   -1.8440 C   0  0  0  0  0  0  0  0  0  0  0  0
   14.6240    2.5120   -2.7790 C   0  0  0  0  0  0  0  0  0  0  0  0
   14.2470    3.7750   -2.4540 N   0  0  0  0  0  0  0  0  0  0  0  0
   14.4400    4.2150   -1.1870 C   0  0  0  0  0  0  0  0  0  0  0  0
   15.0290    3.3910   -0.2070 C   0  0  0  0  0  0  0  0  0  0  0  0
   15.2190    3.9510    1.3980 Cl  0  0  0  0  0  0  0  0  0  0  0  0
   15.4280    2.0960   -0.5360 C   0  0  0  0  0  0  0  0  0  0  0  0
   15.0710   -0.8120   -1.4470 C   0  0  0  0  0  0  0  0  0  0  0  0
   15.0990   -4.6610   -1.4050 C   0  0  0  0  0  0  0  0  0  0  0  0
   16.3110   -5.4750   -0.9740 C   0  0  0  0  0  0  0  0  0  0  0  0
   14.9300   -5.8780   -0.5040 C   0  0  0  0  0  0  0  0  0  0  0  0
   13.3110   -3.0720   -0.7510 C   0  0  0  0  0  0  0  0  0  0  0  0
   12.4330   -3.0920   -1.5530 O   0  0  0  0  0  0  0  0  0  0  0  0
   10.9400   -2.6470    0.6110 H   0  0  0  0  0  0  0  0  0  0  0  0
   11.6190   -3.0900    2.2500 H   0  0  0  0  0  0  0  0  0  0  0  0
   11.8490   -1.3910    1.6000 H   0  0  0  0  0  0  0  0  0  0  0  0
   13.6700   -2.2280    3.3260 H   0  0  0  0  0  0  0  0  0  0  0  0
   16.2960   -3.2380    0.8800 H   0  0  0  0  0  0  0  0  0  0  0  0
   16.6850   -3.4130   -2.9690 H   0  0  0  0  0  0  0  0  0  0  0  0
   17.5560   -1.5390   -4.3440 H   0  0  0  0  0  0  0  0  0  0  0  0
   16.8560    0.8000   -3.8760 H   0  0  0  0  0  0  0  0  0  0  0  0
   14.4360    2.1800   -3.8130 H   0  0  0  0  0  0  0  0  0  0  0  0
   14.1060    5.2380   -0.9500 H   0  0  0  0  0  0  0  0  0  0  0  0
   15.8880    1.4350    0.2010 H   0  0  0  0  0  0  0  0  0  0  0  0
   14.3830   -0.6080   -0.6270 H   0  0  0  0  0  0  0  0  0  0  0  0
   14.7640   -4.7540   -2.4560 H   0  0  0  0  0  0  0  0  0  0  0  0
   16.8170   -6.0880   -1.7330 H   0  0  0  0  0  0  0  0  0  0  0  0
   17.0150   -5.0290   -0.2590 H   0  0  0  0  0  0  0  0  0  0  0  0
   14.6550   -5.7300    0.5470 H   0  0  0  0  0  0  0  0  0  0  0  0
   14.4640   -6.7790   -0.9330 H   0  0  0  0  0  0  0  0  0  0  0  0
   15.3690   -2.6160    3.1510 H   0  0  0  0  0  0  0  0  0  0  0  0
  1  2  1  0  0  0  0
  1 25  1  0  0  0  0
  1 26  1  0  0  0  0
  1 27  1  0  0  0  0
  2  3  1  0  0  0  0
  2 23  1  0  0  0  0
  3  4  1  0  0  0  0
  3  5  2  0  0  0  0
  4 28  1  0  0  0  0
  4 42  1  0  0  0  0
  5  6  1  0  0  0  0
  5 29  1  0  0  0  0
  6  7  1  0  0  0  0
  6 20  1  0  0  0  0
  6 23  1  0  0  0  0
  7  8  2  0  0  0  0
  7 19  1  0  0  0  0
  8  9  1  0  0  0  0
  8 30  1  0  0  0  0
  9 10  2  0  0  0  0
  9 31  1  0  0  0  0
 10 11  1  0  0  0  0
 10 32  1  0  0  0  0
 11 12  1  0  0  0  0
 11 19  2  0  0  0  0
 12 13  2  0  0  0  0
 12 18  1  0  0  0  0
 13 14  1  0  0  0  0
 13 33  1  0  0  0  0
 14 15  2  0  0  0  0
 15 16  1  0  0  0  0
 15 34  1  0  0  0  0
 16 17  1  0  0  0  0
 16 18  2  0  0  0  0
 18 35  1  0  0  0  0
 19 36  1  0  0  0  0
 20 21  1  0  0  0  0
 20 22  1  0  0  0  0
 20 37  1  0  0  0  0
 21 22  1  0  0  0  0
 21 38  1  0  0  0  0
 21 39  1  0  0  0  0
 22 40  1  0  0  0  0
 22 41  1  0  0  0  0
 23 24  2  0  0  0  0
M  CHG  1   5   1
M  END
$$$$
