p38a_2h
 OpenBabel02232411163D
Structure written by MMmdl.
 46 49  0  0  0  0  0  0  0  0999 V2000
   32.6550   39.7570   27.2110 C   0  0  0  0  0  0  0  0  0  0  0  0
   32.6260   39.1560   28.6220 C   0  0  0  0  0  0  0  0  0  0  0  0
   35.0040   38.7370   28.5960 C   0  0  0  0  0  0  0  0  0  0  0  0
   35.1520   39.3110   27.1820 C   0  0  0  0  0  0  0  0  0  0  0  0
   38.3420   36.2960   17.6620 C   0  0  0  0  0  0  0  0  0  0  0  0
   33.8900   39.3320   29.3010 O   0  0  0  0  0  0  0  0  0  0  0  0
   34.3740   35.1200   21.3310 C   0  0  0  0  0  0  0  0  0  0  0  0
   37.2200   35.8780   18.3760 C   0  0  0  0  0  0  0  0  0  0  0  0
   34.1560   39.2190   23.9070 C   0  0  0  0  0  0  0  0  0  0  0  0
   33.8260   39.1490   26.4080 C   0  0  0  0  0  0  0  0  0  0  0  0
   34.4580   37.9930   21.4530 C   0  0  0  0  0  0  0  0  0  0  0  0
   34.5700   37.3190   20.1970 C   0  0  0  0  0  0  0  0  0  0  0  0
   38.1870   36.5450   16.2940 C   0  0  0  0  0  0  0  0  0  0  0  0
   36.9450   36.3730   15.6750 C   0  0  0  0  0  0  0  0  0  0  0  0
   35.8300   35.9580   16.4130 C   0  0  0  0  0  0  0  0  0  0  0  0
   34.3250   37.2290   22.6560 C   0  0  0  0  0  0  0  0  0  0  0  0
   34.4590   39.4130   21.5850 C   0  0  0  0  0  0  0  0  0  0  0  0
   34.5290   35.9620   20.1470 C   0  0  0  0  0  0  0  0  0  0  0  0
   35.9670   35.6990   17.7800 C   0  0  0  0  0  0  0  0  0  0  0  0
   34.2310   35.0650   23.8710 C   0  0  0  0  0  0  0  0  0  0  0  0
   37.3340   35.6240   19.6770 F   0  0  0  0  0  0  0  0  0  0  0  0
   34.5720   35.0810   18.6370 S   0  0  0  0  0  0  0  0  0  0  0  0
   34.3130   40.0350   22.7590 N   0  0  0  0  0  0  0  0  0  0  0  0
   34.2770   33.9120   21.3700 O   0  0  0  0  0  0  0  0  0  0  0  0
   34.3180   35.8370   22.6000 N   0  0  0  0  0  0  0  0  0  0  0  0
   34.1890   37.8390   23.8810 N   0  0  0  0  0  0  0  0  0  0  0  0
   33.9190   39.8570   25.0950 N   0  0  0  0  0  0  0  0  0  0  0  0
   31.6890   39.5440   26.6940 H   0  0  0  0  0  0  0  0  0  0  0  0
   32.7770   40.8650   27.2810 H   0  0  0  0  0  0  0  0  0  0  0  0
   31.9230   39.7140   29.2830 H   0  0  0  0  0  0  0  0  0  0  0  0
   32.3790   38.0700   28.5880 H   0  0  0  0  0  0  0  0  0  0  0  0
   34.8620   37.6320   28.5650 H   0  0  0  0  0  0  0  0  0  0  0  0
   35.8700   39.0200   29.2400 H   0  0  0  0  0  0  0  0  0  0  0  0
   35.4260   40.3930   27.2380 H   0  0  0  0  0  0  0  0  0  0  0  0
   35.9680   38.7680   26.6490 H   0  0  0  0  0  0  0  0  0  0  0  0
   39.3100   36.4590   18.1380 H   0  0  0  0  0  0  0  0  0  0  0  0
   33.6240   38.0550   26.2320 H   0  0  0  0  0  0  0  0  0  0  0  0
   34.6960   37.9330   19.2970 H   0  0  0  0  0  0  0  0  0  0  0  0
   36.8340   36.5890   14.6130 H   0  0  0  0  0  0  0  0  0  0  0  0
   34.8630   35.8600   15.9100 H   0  0  0  0  0  0  0  0  0  0  0  0
   34.5770   40.0480   20.6880 H   0  0  0  0  0  0  0  0  0  0  0  0
   35.0650   35.3650   24.5620 H   0  0  0  0  0  0  0  0  0  0  0  0
   33.2550   35.2770   24.3870 H   0  0  0  0  0  0  0  0  0  0  0  0
   34.3060   33.9660   23.6630 H   0  0  0  0  0  0  0  0  0  0  0  0
   33.9390   40.8940   25.1450 H   0  0  0  0  0  0  0  0  0  0  0  0
   39.0360   36.8980   15.7140 H   0  0  0  0  0  0  0  0  0  0  0  0
  1  2  1  0  0  0  0
  1 10  1  0  0  0  0
  1 28  1  0  0  0  0
  1 29  1  0  0  0  0
  2  6  1  0  0  0  0
  2 30  1  0  0  0  0
  2 31  1  0  0  0  0
  3  4  1  0  0  0  0
  3  6  1  0  0  0  0
  3 32  1  0  0  0  0
  3 33  1  0  0  0  0
  4 10  1  0  0  0  0
  4 34  1  0  0  0  0
  4 35  1  0  0  0  0
  5  8  2  0  0  0  0
  5 13  1  0  0  0  0
  5 36  1  0  0  0  0
  7 18  1  0  0  0  0
  7 24  2  0  0  0  0
  7 25  1  0  0  0  0
  8 19  1  0  0  0  0
  8 21  1  0  0  0  0
  9 23  2  0  0  0  0
  9 26  1  0  0  0  0
  9 27  1  0  0  0  0
 10 27  1  0  0  0  0
 10 37  1  0  0  0  0
 11 12  1  0  0  0  0
 11 16  1  0  0  0  0
 11 17  2  0  0  0  0
 12 18  2  0  0  0  0
 12 38  1  0  0  0  0
 13 14  2  0  0  0  0
 13 46  1  0  0  0  0
 14 15  1  0  0  0  0
 14 39  1  0  0  0  0
 15 19  2  0  0  0  0
 15 40  1  0  0  0  0
 16 25  1  0  0  0  0
 16 26  2  0  0  0  0
 17 23  1  0  0  0  0
 17 41  1  0  0  0  0
 18 22  1  0  0  0  0
 19 22  1  0  0  0  0
 20 25  1  0  0  0  0
 20 42  1  0  0  0  0
 20 43  1  0  0  0  0
 20 44  1  0  0  0  0
 27 45  1  0  0  0  0
M  END
$$$$
