p38a_3flq
 OpenBabel02232411163D
Structure written by MMmdl.
 47 49  0  0  1  0  0  0  0  0999 V2000
   34.6230   39.0990   24.2630 C   0  0  0  0  0  0  0  0  0  0  0  0
   34.7760   37.9210   21.7710 C   0  0  0  0  0  0  0  0  0  0  0  0
   34.9600   37.2810   20.4980 C   0  0  0  0  0  0  0  0  0  0  0  0
   34.7340   37.1370   22.9630 C   0  0  0  0  0  0  0  0  0  0  0  0
   34.9460   35.9280   20.4450 C   0  0  0  0  0  0  0  0  0  0  0  0
   35.2210   39.1120   26.7190 C   0  0  1  0  0  0  0  0  0  0  0  0
   35.4630   40.2370   27.7280 C   0  0  0  0  0  0  0  0  0  0  0  0
   32.3670   36.5230   28.3850 C   0  0  0  0  0  0  0  0  0  0  0  0
   34.6910   35.7370   22.8810 N   0  0  0  0  0  0  0  0  0  0  0  0
   34.4480   37.9220   27.3050 C   0  0  0  0  0  0  0  0  0  0  0  0
   38.3900   36.8260   15.2730 F   0  0  0  0  0  0  0  0  0  0  0  0
   37.6330   36.3630   16.2660 C   0  0  0  0  0  0  0  0  0  0  0  0
   38.1420   36.3980   17.5660 C   0  0  0  0  0  0  0  0  0  0  0  0
   37.3080   36.0350   18.6300 C   0  0  0  0  0  0  0  0  0  0  0  0
   36.3470   35.9020   15.9520 C   0  0  0  0  0  0  0  0  0  0  0  0
   35.5480   35.5180   17.0220 C   0  0  0  0  0  0  0  0  0  0  0  0
   34.3260   35.0440   16.8170 F   0  0  0  0  0  0  0  0  0  0  0  0
   36.0060   35.6080   18.3550 C   0  0  0  0  0  0  0  0  0  0  0  0
   35.0960   35.1350   19.3050 O   0  0  0  0  0  0  0  0  0  0  0  0
   34.6500   35.0550   21.6090 C   0  0  0  0  0  0  0  0  0  0  0  0
   34.3810   33.8760   21.5610 O   0  0  0  0  0  0  0  0  0  0  0  0
   34.6410   39.3300   21.9260 C   0  0  0  0  0  0  0  0  0  0  0  0
   34.5350   39.9250   23.1200 N   0  0  0  0  0  0  0  0  0  0  0  0
   34.7030   37.7220   24.2040 N   0  0  0  0  0  0  0  0  0  0  0  0
   34.6510   34.9370   24.1360 C   0  0  0  0  0  0  0  0  0  0  0  0
   34.6020   39.7160   25.4930 N   0  0  0  0  0  0  0  0  0  0  0  0
   32.8750   38.1540   28.0470 S   0  0  0  0  0  0  0  0  0  0  0  0
   32.9790   38.9040   29.3210 O   0  0  0  0  0  0  0  0  0  0  0  0
   31.9250   38.7920   27.1180 O   0  0  0  0  0  0  0  0  0  0  0  0
   35.1300   37.9110   19.6190 H   0  0  0  0  0  0  0  0  0  0  0  0
   36.2280   38.6950   26.4020 H   0  0  0  0  0  0  0  0  0  0  0  0
   36.1970   40.9750   27.3290 H   0  0  0  0  0  0  0  0  0  0  0  0
   34.5290   40.7880   27.9860 H   0  0  0  0  0  0  0  0  0  0  0  0
   35.8890   39.8080   28.6680 H   0  0  0  0  0  0  0  0  0  0  0  0
   31.4670   36.4760   29.0480 H   0  0  0  0  0  0  0  0  0  0  0  0
   32.1140   35.9490   27.4560 H   0  0  0  0  0  0  0  0  0  0  0  0
   33.1730   35.9320   28.8970 H   0  0  0  0  0  0  0  0  0  0  0  0
   34.3530   37.1400   26.4900 H   0  0  0  0  0  0  0  0  0  0  0  0
   35.1240   37.4430   28.0750 H   0  0  0  0  0  0  0  0  0  0  0  0
   39.1650   36.7370   17.7540 H   0  0  0  0  0  0  0  0  0  0  0  0
   37.6730   36.1120   19.6550 H   0  0  0  0  0  0  0  0  0  0  0  0
   35.9850   35.8750   14.9210 H   0  0  0  0  0  0  0  0  0  0  0  0
   34.6250   39.9780   21.0310 H   0  0  0  0  0  0  0  0  0  0  0  0
   34.7500   33.8450   23.9040 H   0  0  0  0  0  0  0  0  0  0  0  0
   35.4940   35.2410   24.8150 H   0  0  0  0  0  0  0  0  0  0  0  0
   33.6830   35.1110   24.6790 H   0  0  0  0  0  0  0  0  0  0  0  0
   34.3640   40.7290   25.5390 H   0  0  0  0  0  0  0  0  0  0  0  0
  1 23  2  0  0  0  0
  1 24  1  0  0  0  0
  1 26  1  0  0  0  0
  2  3  1  0  0  0  0
  2  4  1  0  0  0  0
  2 22  2  0  0  0  0
  3  5  2  0  0  0  0
  3 30  1  0  0  0  0
  4  9  1  0  0  0  0
  4 24  2  0  0  0  0
  5 19  1  0  0  0  0
  5 20  1  0  0  0  0
  6  7  1  0  0  0  0
  6 10  1  0  0  0  0
  6 26  1  0  0  0  0
  6 31  1  6  0  0  0
  7 32  1  0  0  0  0
  7 33  1  0  0  0  0
  7 34  1  0  0  0  0
  8 27  1  0  0  0  0
  8 35  1  0  0  0  0
  8 36  1  0  0  0  0
  8 37  1  0  0  0  0
  9 20  1  0  0  0  0
  9 25  1  0  0  0  0
 10 27  1  0  0  0  0
 10 38  1  0  0  0  0
 10 39  1  0  0  0  0
 11 12  1  0  0  0  0
 12 13  2  0  0  0  0
 12 15  1  0  0  0  0
 13 14  1  0  0  0  0
 13 40  1  0  0  0  0
 14 18  2  0  0  0  0
 14 41  1  0  0  0  0
 15 16  2  0  0  0  0
 15 42  1  0  0  0  0
 16 17  1  0  0  0  0
 16 18  1  0  0  0  0
 18 19  1  0  0  0  0
 20 21  2  0  0  0  0
 22 23  1  0  0  0  0
 22 43  1  0  0  0  0
 25 44  1  0  0  0  0
 25 45  1  0  0  0  0
 25 46  1  0  0  0  0
 26 47  1  0  0  0  0
 27 28  2  0  0  0  0
 27 29  2  0  0  0  0
M  END
$$$$
