18638-1
 OpenBabel02232411163D
Structure written by MMmdl.
 52 53  0  0  0  0  0  0  0  0999 V2000
   23.2820   10.6170   29.0200 C   0  0  0  0  0  0  0  0  0  0  0  0
   23.5820   10.9000   30.4770 C   0  0  0  0  0  0  0  0  0  0  0  0
   22.3310   11.0230   31.2540 O   0  0  0  0  0  0  0  0  0  0  0  0
   21.6640    9.9050   31.6150 C   0  0  0  0  0  0  0  0  0  0  0  0
   22.1280    8.6950   31.2220 N   0  0  0  0  0  0  0  0  0  0  0  0
   21.3730    7.5830   31.5540 C   0  0  0  0  0  0  0  0  0  0  0  0
   20.2030    7.6640   32.3030 C   0  0  0  0  0  0  0  0  0  0  0  0
   19.7330    8.9350   32.7290 C   0  0  0  0  0  0  0  0  0  0  0  0
   18.5650    9.0170   33.4460 N   0  0  0  0  0  0  0  0  0  0  0  0
   20.4770   10.1080   32.3810 C   0  0  0  0  0  0  0  0  0  0  0  0
   20.0910   11.4210   32.7230 C   0  0  0  0  0  0  0  0  0  0  0  0
   19.8200   12.5220   32.9690 N   0  0  0  0  0  0  0  0  0  0  0  0
   21.9190    6.3890   31.0200 N   0  0  0  0  0  0  0  0  0  0  0  0
   21.2310    5.1620   30.9110 C   0  0  0  0  0  0  0  0  0  0  0  0
   20.1470    4.9710   31.4200 O   0  0  0  0  0  0  0  0  0  0  0  0
   21.9200    4.1380   30.0240 C   0  0  0  0  0  0  0  0  0  0  0  0
   23.2960    3.7190   30.4510 C   0  0  0  0  0  0  0  0  0  0  0  0
   24.4410    4.4250   29.9780 C   0  0  0  0  0  0  0  0  0  0  0  0
   24.1130    5.5570   29.2380 O   0  0  0  0  0  0  0  0  0  0  0  0
   25.1450    6.5730   29.0990 C   0  0  0  0  0  0  0  0  0  0  0  0
   25.7290    3.9510   30.1990 C   0  0  0  0  0  0  0  0  0  0  0  0
   25.9370    2.7880   30.9620 C   0  0  0  0  0  0  0  0  0  0  0  0
   27.5760    2.1800   31.1000 S   0  0  0  0  0  0  0  0  0  0  0  0
   28.5460    3.3020   31.1030 O   0  0  0  0  0  0  0  0  0  0  0  0
   27.6950    1.3820   32.3430 O   0  0  0  0  0  0  0  0  0  0  0  0
   27.7730    1.1900   29.6880 C   0  0  0  0  0  0  0  0  0  0  0  0
   24.8170    2.1450   31.5090 C   0  0  0  0  0  0  0  0  0  0  0  0
   23.5000    2.5920   31.2300 C   0  0  0  0  0  0  0  0  0  0  0  0
   25.0960    1.0900   32.3410 O   0  0  0  0  0  0  0  0  0  0  0  0
   24.0080    0.1820   32.6780 C   0  0  0  0  0  0  0  0  0  0  0  0
   22.8700    9.5890   28.8840 H   0  0  0  0  0  0  0  0  0  0  0  0
   22.5550   11.3510   28.6050 H   0  0  0  0  0  0  0  0  0  0  0  0
   24.2280   10.6930   28.4290 H   0  0  0  0  0  0  0  0  0  0  0  0
   23.9890   11.9280   30.6310 H   0  0  0  0  0  0  0  0  0  0  0  0
   24.2280   10.1160   30.9340 H   0  0  0  0  0  0  0  0  0  0  0  0
   19.6270    6.7700   32.5510 H   0  0  0  0  0  0  0  0  0  0  0  0
   18.0490    8.1610   33.7250 H   0  0  0  0  0  0  0  0  0  0  0  0
   18.1790    9.9160   33.7340 H   0  0  0  0  0  0  0  0  0  0  0  0
   22.8350    6.4860   30.5240 H   0  0  0  0  0  0  0  0  0  0  0  0
   21.2680    3.2270   29.9660 H   0  0  0  0  0  0  0  0  0  0  0  0
   21.9870    4.5930   28.9940 H   0  0  0  0  0  0  0  0  0  0  0  0
   24.5520    7.4480   28.7460 H   0  0  0  0  0  0  0  0  0  0  0  0
   25.6250    6.7810   30.0790 H   0  0  0  0  0  0  0  0  0  0  0  0
   25.8780    6.2390   28.3350 H   0  0  0  0  0  0  0  0  0  0  0  0
   26.5810    4.4790   29.7530 H   0  0  0  0  0  0  0  0  0  0  0  0
   27.7070    1.7910   28.7410 H   0  0  0  0  0  0  0  0  0  0  0  0
   28.7630    0.6650   29.6610 H   0  0  0  0  0  0  0  0  0  0  0  0
   26.9850    0.3970   29.6080 H   0  0  0  0  0  0  0  0  0  0  0  0
   22.6420    2.0370   31.6120 H   0  0  0  0  0  0  0  0  0  0  0  0
   23.5570   -0.2280   31.7490 H   0  0  0  0  0  0  0  0  0  0  0  0
   23.2640    0.6910   33.3270 H   0  0  0  0  0  0  0  0  0  0  0  0
   24.5490   -0.6170   33.2420 H   0  0  0  0  0  0  0  0  0  0  0  0
  1  2  1  0  0  0  0
  1 31  1  0  0  0  0
  1 32  1  0  0  0  0
  1 33  1  0  0  0  0
  2  3  1  0  0  0  0
  2 34  1  0  0  0  0
  2 35  1  0  0  0  0
  3  4  1  0  0  0  0
  4 10  2  0  0  0  0
  4  5  1  0  0  0  0
  5  6  2  0  0  0  0
  6  7  1  0  0  0  0
  6 13  1  0  0  0  0
  7  8  2  0  0  0  0
  7 36  1  0  0  0  0
  8  9  1  0  0  0  0
  8 10  1  0  0  0  0
  9 37  1  0  0  0  0
  9 38  1  0  0  0  0
 10 11  1  0  0  0  0
 11 12  3  0  0  0  0
 13 14  1  0  0  0  0
 13 39  1  0  0  0  0
 14 15  2  0  0  0  0
 14 16  1  0  0  0  0
 16 17  1  0  0  0  0
 16 40  1  0  0  0  0
 16 41  1  0  0  0  0
 17 28  2  0  0  0  0
 17 18  1  0  0  0  0
 18 19  1  0  0  0  0
 18 21  2  0  0  0  0
 19 20  1  0  0  0  0
 20 42  1  0  0  0  0
 20 43  1  0  0  0  0
 20 44  1  0  0  0  0
 21 22  1  0  0  0  0
 21 45  1  0  0  0  0
 22 23  1  0  0  0  0
 22 27  2  0  0  0  0
 23 24  2  0  0  0  0
 23 25  2  0  0  0  0
 23 26  1  0  0  0  0
 26 46  1  0  0  0  0
 26 47  1  0  0  0  0
 26 48  1  0  0  0  0
 27 28  1  0  0  0  0
 27 29  1  0  0  0  0
 28 49  1  0  0  0  0
 29 30  1  0  0  0  0
 30 50  1  0  0  0  0
 30 51  1  0  0  0  0
 30 52  1  0  0  0  0
M  END
$$$$
