p38a_2i
 OpenBabel02232411163D
Structure written by MMmdl.
 48 51  0  0  0  0  0  0  0  0999 V2000
   31.9970   39.5880   27.3040 C   0  0  0  0  0  0  0  0  0  0  0  0
   31.9760   38.8560   28.6510 C   0  0  0  0  0  0  0  0  0  0  0  0
   34.3360   38.3640   28.5290 C   0  0  0  0  0  0  0  0  0  0  0  0
   34.4770   39.0660   27.1720 C   0  0  0  0  0  0  0  0  0  0  0  0
   36.2360   34.6930   15.6780 C   0  0  0  0  0  0  0  0  0  0  0  0
   33.2590   38.9280   29.3130 O   0  0  0  0  0  0  0  0  0  0  0  0
   34.8770   35.6890   21.0960 C   0  0  0  0  0  0  0  0  0  0  0  0
   36.6930   35.3270   16.8300 C   0  0  0  0  0  0  0  0  0  0  0  0
   33.5820   39.3610   23.9610 C   0  0  0  0  0  0  0  0  0  0  0  0
   33.1300   39.0270   26.4180 C   0  0  0  0  0  0  0  0  0  0  0  0
   34.4660   38.4740   21.5190 C   0  0  0  0  0  0  0  0  0  0  0  0
   35.1650   38.0170   20.3570 C   0  0  0  0  0  0  0  0  0  0  0  0
   34.8740   34.3830   15.5900 C   0  0  0  0  0  0  0  0  0  0  0  0
   34.0100   34.7300   16.6300 C   0  0  0  0  0  0  0  0  0  0  0  0
   34.4960   35.3690   17.7760 C   0  0  0  0  0  0  0  0  0  0  0  0
   34.1640   37.5560   22.5710 C   0  0  0  0  0  0  0  0  0  0  0  0
   34.1550   39.8420   21.7370 C   0  0  0  0  0  0  0  0  0  0  0  0
   35.4620   36.7010   20.2020 C   0  0  0  0  0  0  0  0  0  0  0  0
   35.8600   35.6510   17.9190 C   0  0  0  0  0  0  0  0  0  0  0  0
   33.9440   35.2270   23.4180 C   0  0  0  0  0  0  0  0  0  0  0  0
   38.0020   35.5890   16.9100 F   0  0  0  0  0  0  0  0  0  0  0  0
   36.4500   36.2370   19.1700 C   0  0  0  0  0  0  0  0  0  0  0  0
   33.7410   40.3040   22.9200 N   0  0  0  0  0  0  0  0  0  0  0  0
   34.7930   34.4940   20.8930 O   0  0  0  0  0  0  0  0  0  0  0  0
   34.3240   36.1890   22.3480 N   0  0  0  0  0  0  0  0  0  0  0  0
   33.7310   37.9980   23.8010 N   0  0  0  0  0  0  0  0  0  0  0  0
   33.1970   39.8620   25.1810 N   0  0  0  0  0  0  0  0  0  0  0  0
   31.0170   39.4470   26.7890 H   0  0  0  0  0  0  0  0  0  0  0  0
   32.1580   40.6800   27.4720 H   0  0  0  0  0  0  0  0  0  0  0  0
   31.3010   39.3650   29.3780 H   0  0  0  0  0  0  0  0  0  0  0  0
   31.6940   37.7850   28.5180 H   0  0  0  0  0  0  0  0  0  0  0  0
   34.1530   37.2720   28.3950 H   0  0  0  0  0  0  0  0  0  0  0  0
   35.2240   38.5530   29.1750 H   0  0  0  0  0  0  0  0  0  0  0  0
   34.7980   40.1250   27.3220 H   0  0  0  0  0  0  0  0  0  0  0  0
   35.2630   38.5440   26.5740 H   0  0  0  0  0  0  0  0  0  0  0  0
   36.9130   34.4400   14.8610 H   0  0  0  0  0  0  0  0  0  0  0  0
   32.8880   37.9640   26.1330 H   0  0  0  0  0  0  0  0  0  0  0  0
   35.4940   38.7770   19.6420 H   0  0  0  0  0  0  0  0  0  0  0  0
   32.9430   34.5070   16.5470 H   0  0  0  0  0  0  0  0  0  0  0  0
   33.7900   35.6560   18.5600 H   0  0  0  0  0  0  0  0  0  0  0  0
   34.2550   40.5620   20.9080 H   0  0  0  0  0  0  0  0  0  0  0  0
   34.5400   35.4300   24.3490 H   0  0  0  0  0  0  0  0  0  0  0  0
   32.8530   35.3350   23.6650 H   0  0  0  0  0  0  0  0  0  0  0  0
   34.1400   34.1780   23.0770 H   0  0  0  0  0  0  0  0  0  0  0  0
   33.2420   40.8910   25.3350 H   0  0  0  0  0  0  0  0  0  0  0  0
   34.4860   33.8700   14.7070 H   0  0  0  0  0  0  0  0  0  0  0  0
   37.0990   37.1140   18.8920 H   0  0  0  0  0  0  0  0  0  0  0  0
   37.1190   35.4700   19.6460 H   0  0  0  0  0  0  0  0  0  0  0  0
  1  2  1  0  0  0  0
  1 10  1  0  0  0  0
  1 28  1  0  0  0  0
  1 29  1  0  0  0  0
  2  6  1  0  0  0  0
  2 30  1  0  0  0  0
  2 31  1  0  0  0  0
  3  4  1  0  0  0  0
  3  6  1  0  0  0  0
  3 32  1  0  0  0  0
  3 33  1  0  0  0  0
  4 10  1  0  0  0  0
  4 34  1  0  0  0  0
  4 35  1  0  0  0  0
  5  8  2  0  0  0  0
  5 13  1  0  0  0  0
  5 36  1  0  0  0  0
  7 18  1  0  0  0  0
  7 24  2  0  0  0  0
  7 25  1  0  0  0  0
  8 19  1  0  0  0  0
  8 21  1  0  0  0  0
  9 23  2  0  0  0  0
  9 26  1  0  0  0  0
  9 27  1  0  0  0  0
 10 27  1  0  0  0  0
 10 37  1  0  0  0  0
 11 12  1  0  0  0  0
 11 16  1  0  0  0  0
 11 17  2  0  0  0  0
 12 18  2  0  0  0  0
 12 38  1  0  0  0  0
 13 14  2  0  0  0  0
 13 46  1  0  0  0  0
 14 15  1  0  0  0  0
 14 39  1  0  0  0  0
 15 19  2  0  0  0  0
 15 40  1  0  0  0  0
 16 25  1  0  0  0  0
 16 26  2  0  0  0  0
 17 23  1  0  0  0  0
 17 41  1  0  0  0  0
 18 22  1  0  0  0  0
 19 22  1  0  0  0  0
 20 25  1  0  0  0  0
 20 42  1  0  0  0  0
 20 43  1  0  0  0  0
 20 44  1  0  0  0  0
 22 47  1  0  0  0  0
 22 48  1  0  0  0  0
 27 45  1  0  0  0  0
M  END
$$$$
