p38a_2x
 OpenBabel02232411163D
Structure written by MMmdl.
 43 46  0  0  1  0  0  0  0  0999 V2000
   36.3610   36.0080   15.8170 C   0  0  0  0  0  0  0  0  0  0  0  0
   34.5740   35.0100   21.4010 C   0  0  0  0  0  0  0  0  0  0  0  0
   35.6560   35.5480   16.9240 C   0  0  0  0  0  0  0  0  0  0  0  0
   34.3500   39.0850   23.9900 C   0  0  0  0  0  0  0  0  0  0  0  0
   34.8010   37.8730   21.5610 C   0  0  0  0  0  0  0  0  0  0  0  0
   35.1560   37.2070   20.3370 C   0  0  0  0  0  0  0  0  0  0  0  0
   37.6510   36.4980   16.0560 C   0  0  0  0  0  0  0  0  0  0  0  0
   38.2510   36.5030   17.3180 C   0  0  0  0  0  0  0  0  0  0  0  0
   37.5090   36.0700   18.4230 C   0  0  0  0  0  0  0  0  0  0  0  0
   34.4880   37.1080   22.7250 C   0  0  0  0  0  0  0  0  0  0  0  0
   34.7610   39.2870   21.6920 C   0  0  0  0  0  0  0  0  0  0  0  0
   35.0900   35.8560   20.2900 C   0  0  0  0  0  0  0  0  0  0  0  0
   36.2090   35.5960   18.2210 C   0  0  0  0  0  0  0  0  0  0  0  0
   34.0460   34.9360   23.8700 C   0  0  0  0  0  0  0  0  0  0  0  0
   34.4400   35.0380   16.7860 F   0  0  0  0  0  0  0  0  0  0  0  0
   35.4200   35.0210   19.2250 O   0  0  0  0  0  0  0  0  0  0  0  0
   34.5290   39.9060   22.8600 N   0  0  0  0  0  0  0  0  0  0  0  0
   34.3190   33.8290   21.3230 O   0  0  0  0  0  0  0  0  0  0  0  0
   34.3790   35.7120   22.6420 N   0  0  0  0  0  0  0  0  0  0  0  0
   34.2680   37.7080   23.9410 N   0  0  0  0  0  0  0  0  0  0  0  0
   34.2910   39.7090   25.2170 N   0  0  0  0  0  0  0  0  0  0  0  0
   35.9230   36.0130   14.8160 H   0  0  0  0  0  0  0  0  0  0  0  0
   35.4880   37.8190   19.4950 H   0  0  0  0  0  0  0  0  0  0  0  0
   39.2730   36.8690   17.4500 H   0  0  0  0  0  0  0  0  0  0  0  0
   37.9410   36.1280   19.4240 H   0  0  0  0  0  0  0  0  0  0  0  0
   34.9190   39.9260   20.8060 H   0  0  0  0  0  0  0  0  0  0  0  0
   34.7830   35.1770   24.6850 H   0  0  0  0  0  0  0  0  0  0  0  0
   33.0170   35.2070   24.2300 H   0  0  0  0  0  0  0  0  0  0  0  0
   34.0860   33.8360   23.6580 H   0  0  0  0  0  0  0  0  0  0  0  0
   34.1230   40.7350   25.2640 H   0  0  0  0  0  0  0  0  0  0  0  0
   38.3210   37.0190   15.0310 F   0  0  0  0  0  0  0  0  0  0  0  0
   32.3510   38.8750   28.1440 O   0  0  0  0  0  0  0  0  0  0  0  0
   33.2720   39.9100   28.5860 C   0  0  0  0  0  0  0  0  0  0  0  0
   34.5200   39.8140   27.6950 C   0  0  0  0  0  0  0  0  0  0  0  0
   34.0910   38.9540   26.4820 C   0  0  1  0  0  0  0  0  0  0  0  0
   32.5930   38.6220   26.7380 C   0  0  0  0  0  0  0  0  0  0  0  0
   33.4730   39.6700   29.6510 H   0  0  0  0  0  0  0  0  0  0  0  0
   32.7640   40.8920   28.4690 H   0  0  0  0  0  0  0  0  0  0  0  0
   34.8630   40.8330   27.3900 H   0  0  0  0  0  0  0  0  0  0  0  0
   35.3670   39.3270   28.2310 H   0  0  0  0  0  0  0  0  0  0  0  0
   34.7040   38.0130   26.4360 H   0  0  0  0  0  0  0  0  0  0  0  0
   32.3640   37.5430   26.6030 H   0  0  0  0  0  0  0  0  0  0  0  0
   31.9150   39.2760   26.1490 H   0  0  0  0  0  0  0  0  0  0  0  0
  1  3  2  0  0  0  0
  1  7  1  0  0  0  0
  1 22  1  0  0  0  0
  2 12  1  0  0  0  0
  2 18  2  0  0  0  0
  2 19  1  0  0  0  0
  3 13  1  0  0  0  0
  3 15  1  0  0  0  0
  4 17  2  0  0  0  0
  4 20  1  0  0  0  0
  4 21  1  0  0  0  0
  5  6  1  0  0  0  0
  5 10  1  0  0  0  0
  5 11  2  0  0  0  0
  6 12  2  0  0  0  0
  6 23  1  0  0  0  0
  7  8  2  0  0  0  0
  7 31  1  0  0  0  0
  8  9  1  0  0  0  0
  8 24  1  0  0  0  0
  9 13  2  0  0  0  0
  9 25  1  0  0  0  0
 10 19  1  0  0  0  0
 10 20  2  0  0  0  0
 11 17  1  0  0  0  0
 11 26  1  0  0  0  0
 12 16  1  0  0  0  0
 13 16  1  0  0  0  0
 14 19  1  0  0  0  0
 14 27  1  0  0  0  0
 14 28  1  0  0  0  0
 14 29  1  0  0  0  0
 21 30  1  0  0  0  0
 21 35  1  0  0  0  0
 32 33  1  0  0  0  0
 32 36  1  0  0  0  0
 33 34  1  0  0  0  0
 33 37  1  0  0  0  0
 33 38  1  0  0  0  0
 34 35  1  0  0  0  0
 34 39  1  0  0  0  0
 34 40  1  0  0  0  0
 35 36  1  0  0  0  0
 35 41  1  1  0  0  0
 36 42  1  0  0  0  0
 36 43  1  0  0  0  0
M  END
$$$$
