28
 OpenBabel02232411153D
Structure written by MMmdl.
 53 56  0  0  0  0  0  0  0  0999 V2000
    1.9810   28.9060    6.7280 C   0  0  0  0  0  0  0  0  0  0  0  0
   -1.5250   31.4380    7.9420 C   0  0  0  0  0  0  0  0  0  0  0  0
    0.1720   26.0430    8.9760 C   0  0  0  0  0  0  0  0  0  0  0  0
   -0.7030   25.2880    9.9840 C   0  0  0  0  0  0  0  0  0  0  0  0
   -0.5480   23.7750    9.7130 C   0  0  0  0  0  0  0  0  0  0  0  0
   -1.3330   22.9460   10.7400 C   0  0  0  0  0  0  0  0  0  0  0  0
   -0.9330   23.3010   12.1820 C   0  0  0  0  0  0  0  0  0  0  0  0
   -1.0900   24.8060   12.4510 C   0  0  0  0  0  0  0  0  0  0  0  0
   -0.3060   25.6430   11.4290 C   0  0  0  0  0  0  0  0  0  0  0  0
    5.3910   25.7610    5.1170 C   0  0  0  0  0  0  0  0  0  0  0  0
    5.3810   24.9170    6.2380 C   0  0  0  0  0  0  0  0  0  0  0  0
    4.6700   25.3220    7.3780 C   0  0  0  0  0  0  0  0  0  0  0  0
    3.9140   26.4950    7.3860 C   0  0  0  0  0  0  0  0  0  0  0  0
    1.3170   27.9450    7.4800 N   0  0  0  0  0  0  0  0  0  0  0  0
    0.1200   28.2540    8.0470 C   0  0  0  0  0  0  0  0  0  0  0  0
   -0.5190   27.3480    8.7990 O   0  0  0  0  0  0  0  0  0  0  0  0
   -0.4430   29.5450    7.8660 C   0  0  0  0  0  0  0  0  0  0  0  0
   -1.6000   30.1680    8.3490 N   0  0  0  0  0  0  0  0  0  0  0  0
   -0.3250   31.7010    7.1910 N   0  0  0  0  0  0  0  0  0  0  0  0
    0.3600   30.4930    7.1110 C   0  0  0  0  0  0  0  0  0  0  0  0
    1.5560   30.2020    6.5000 N   0  0  0  0  0  0  0  0  0  0  0  0
    3.1840   28.5380    6.1250 N   0  0  0  0  0  0  0  0  0  0  0  0
    3.8940   27.3110    6.2410 C   0  0  0  0  0  0  0  0  0  0  0  0
    4.6800   26.9520    5.1210 C   0  0  0  0  0  0  0  0  0  0  0  0
   -2.2440   32.2270    8.1430 H   0  0  0  0  0  0  0  0  0  0  0  0
    1.1960   26.2360    9.3650 H   0  0  0  0  0  0  0  0  0  0  0  0
    0.1910   25.5580    7.9800 H   0  0  0  0  0  0  0  0  0  0  0  0
   -1.7720   25.5770    9.8310 H   0  0  0  0  0  0  0  0  0  0  0  0
   -0.9190   23.5400    8.6910 H   0  0  0  0  0  0  0  0  0  0  0  0
    0.5340   23.4980    9.7730 H   0  0  0  0  0  0  0  0  0  0  0  0
   -2.4190   23.1430   10.6090 H   0  0  0  0  0  0  0  0  0  0  0  0
   -1.1350   21.8630   10.5680 H   0  0  0  0  0  0  0  0  0  0  0  0
   -1.5750   22.7290   12.8900 H   0  0  0  0  0  0  0  0  0  0  0  0
    0.1300   23.0080   12.3470 H   0  0  0  0  0  0  0  0  0  0  0  0
   -2.1700   25.0780   12.4120 H   0  0  0  0  0  0  0  0  0  0  0  0
   -0.7060   25.0380   13.4720 H   0  0  0  0  0  0  0  0  0  0  0  0
    0.7840   25.4500   11.5750 H   0  0  0  0  0  0  0  0  0  0  0  0
   -0.5000   26.7240   11.6120 H   0  0  0  0  0  0  0  0  0  0  0  0
    5.9580   25.5010    4.2120 H   0  0  0  0  0  0  0  0  0  0  0  0
    4.6890   24.7240    8.2980 H   0  0  0  0  0  0  0  0  0  0  0  0
    3.3400   26.7590    8.2760 H   0  0  0  0  0  0  0  0  0  0  0  0
   -0.0830   32.5890    6.7280 H   0  0  0  0  0  0  0  0  0  0  0  0
    3.6210   29.2220    5.4560 H   0  0  0  0  0  0  0  0  0  0  0  0
    4.7330   27.6080    4.2550 H   0  0  0  0  0  0  0  0  0  0  0  0
    6.2900   23.4570    6.1660 S   0  0  0  0  0  0  0  0  0  0  0  0
    6.8250   23.2200    4.8150 O   0  0  0  0  0  0  0  0  0  0  0  0
    7.2980   23.4830    7.2250 O   0  0  0  0  0  0  0  0  0  0  0  0
    5.2420   22.0980    6.4210 N   0  0  0  0  0  0  0  0  0  0  0  0
    4.9160   21.6720    5.5220 H   0  0  0  0  0  0  0  0  0  0  0  0
    4.0710   22.2690    7.3200 C   0  0  0  0  0  0  0  0  0  0  0  0
    3.4390   21.3380    7.3150 H   0  0  0  0  0  0  0  0  0  0  0  0
    4.4050   22.4460    8.3770 H   0  0  0  0  0  0  0  0  0  0  0  0
    3.3950   23.1070    7.0030 H   0  0  0  0  0  0  0  0  0  0  0  0
  1 14  2  0  0  0  0
  1 21  1  0  0  0  0
  1 22  1  0  0  0  0
  2 18  2  0  0  0  0
  2 19  1  0  0  0  0
  2 25  1  0  0  0  0
  3  4  1  0  0  0  0
  3 16  1  0  0  0  0
  3 26  1  0  0  0  0
  3 27  1  0  0  0  0
  4  5  1  0  0  0  0
  4  9  1  0  0  0  0
  4 28  1  0  0  0  0
  5  6  1  0  0  0  0
  5 29  1  0  0  0  0
  5 30  1  0  0  0  0
  6  7  1  0  0  0  0
  6 31  1  0  0  0  0
  6 32  1  0  0  0  0
  7  8  1  0  0  0  0
  7 33  1  0  0  0  0
  7 34  1  0  0  0  0
  8  9  1  0  0  0  0
  8 35  1  0  0  0  0
  8 36  1  0  0  0  0
  9 37  1  0  0  0  0
  9 38  1  0  0  0  0
 10 11  2  0  0  0  0
 10 24  1  0  0  0  0
 10 39  1  0  0  0  0
 11 12  1  0  0  0  0
 11 45  1  0  0  0  0
 12 13  2  0  0  0  0
 12 40  1  0  0  0  0
 13 23  1  0  0  0  0
 13 41  1  0  0  0  0
 14 15  1  0  0  0  0
 15 16  1  0  0  0  0
 15 17  2  0  0  0  0
 17 18  1  0  0  0  0
 17 20  1  0  0  0  0
 19 20  1  0  0  0  0
 19 42  1  0  0  0  0
 20 21  2  0  0  0  0
 22 23  1  0  0  0  0
 22 43  1  0  0  0  0
 23 24  2  0  0  0  0
 24 44  1  0  0  0  0
 45 46  2  0  0  0  0
 45 47  2  0  0  0  0
 45 48  1  0  0  0  0
 48 49  1  0  0  0  0
 48 50  1  0  0  0  0
 50 51  1  0  0  0  0
 50 52  1  0  0  0  0
 50 53  1  0  0  0  0
M  END
$$$$
