p38a_3fmh
 OpenBabel02232411163D
Structure written by MMmdl.
 46 49  0  0  1  0  0  0  0  0999 V2000
   38.4030   37.3290   14.8050 F   0  0  0  0  0  0  0  0  0  0  0  0
   37.7160   36.7810   15.8030 C   0  0  0  0  0  0  0  0  0  0  0  0
   36.3790   36.4490   15.5770 C   0  0  0  0  0  0  0  0  0  0  0  0
   35.6250   35.9170   16.6280 C   0  0  0  0  0  0  0  0  0  0  0  0
   38.3590   36.6110   17.0370 C   0  0  0  0  0  0  0  0  0  0  0  0
   37.5830   36.1000   18.0730 C   0  0  0  0  0  0  0  0  0  0  0  0
   38.1030   35.9660   19.2860 F   0  0  0  0  0  0  0  0  0  0  0  0
   36.2360   35.7320   17.8710 C   0  0  0  0  0  0  0  0  0  0  0  0
   35.5290   35.0510   18.8720 O   0  0  0  0  0  0  0  0  0  0  0  0
   35.0980   35.8340   19.9390 C   0  0  0  0  0  0  0  0  0  0  0  0
   34.5250   34.9270   20.9700 C   0  0  0  0  0  0  0  0  0  0  0  0
   34.4160   33.7250   20.8650 O   0  0  0  0  0  0  0  0  0  0  0  0
   34.0860   35.5910   22.1660 N   0  0  0  0  0  0  0  0  0  0  0  0
   33.5220   34.7810   23.2840 C   0  0  0  0  0  0  0  0  0  0  0  0
   34.1850   36.9820   22.3220 C   0  0  0  0  0  0  0  0  0  0  0  0
   33.7770   37.5300   23.5120 N   0  0  0  0  0  0  0  0  0  0  0  0
   35.1590   37.1800   20.0520 C   0  0  0  0  0  0  0  0  0  0  0  0
   34.7020   37.7940   21.2690 C   0  0  0  0  0  0  0  0  0  0  0  0
   34.7520   39.1940   21.4990 C   0  0  0  0  0  0  0  0  0  0  0  0
   34.3710   39.7590   22.6580 N   0  0  0  0  0  0  0  0  0  0  0  0
   33.8950   38.8950   23.6580 C   0  0  0  0  0  0  0  0  0  0  0  0
   33.5720   39.4440   24.8880 N   0  0  0  0  0  0  0  0  0  0  0  0
   32.6510   38.7320   25.8250 C   0  0  2  0  0  0  0  0  0  0  0  0
   31.6120   39.7180   26.3570 C   0  0  0  0  0  0  0  0  0  0  0  0
   33.5340   38.1330   26.9630 C   0  0  0  0  0  0  0  0  0  0  0  0
   32.7030   37.4370   27.9740 N   0  0  0  0  0  0  0  0  0  0  0  0
   31.7140   36.5560   27.6630 N   0  0  0  0  0  0  0  0  0  0  0  0
   31.1750   36.2140   28.8690 C   0  0  0  0  0  0  0  0  0  0  0  0
   31.8740   36.8990   29.8970 N   0  0  0  0  0  0  0  0  0  0  0  0
   32.7810   37.6330   29.3300 N   0  0  0  0  0  0  0  0  0  0  0  0
   35.9090   36.6160   14.6070 H   0  0  0  0  0  0  0  0  0  0  0  0
   34.5700   35.6680   16.4730 H   0  0  0  0  0  0  0  0  0  0  0  0
   39.4010   36.9020   17.1910 H   0  0  0  0  0  0  0  0  0  0  0  0
   34.1390   34.9280   24.2120 H   0  0  0  0  0  0  0  0  0  0  0  0
   32.4700   35.1140   23.5010 H   0  0  0  0  0  0  0  0  0  0  0  0
   33.5160   33.6950   23.0120 H   0  0  0  0  0  0  0  0  0  0  0  0
   35.5510   37.8280   19.2650 H   0  0  0  0  0  0  0  0  0  0  0  0
   35.1050   39.8720   20.7040 H   0  0  0  0  0  0  0  0  0  0  0  0
   33.6230   40.4770   25.0090 H   0  0  0  0  0  0  0  0  0  0  0  0
   32.1280   37.8860   25.2900 H   0  0  0  0  0  0  0  0  0  0  0  0
   30.8180   39.1730   26.9130 H   0  0  0  0  0  0  0  0  0  0  0  0
   32.0860   40.4720   27.0270 H   0  0  0  0  0  0  0  0  0  0  0  0
   31.1310   40.2570   25.5060 H   0  0  0  0  0  0  0  0  0  0  0  0
   34.2610   37.3950   26.5160 H   0  0  0  0  0  0  0  0  0  0  0  0
   34.1180   38.9510   27.4720 H   0  0  0  0  0  0  0  0  0  0  0  0
   30.3370   35.5350   29.0260 H   0  0  0  0  0  0  0  0  0  0  0  0
  1  2  1  0  0  0  0
  2  3  2  0  0  0  0
  2  5  1  0  0  0  0
  3  4  1  0  0  0  0
  3 31  1  0  0  0  0
  4  8  2  0  0  0  0
  4 32  1  0  0  0  0
  5  6  2  0  0  0  0
  5 33  1  0  0  0  0
  6  7  1  0  0  0  0
  6  8  1  0  0  0  0
  8  9  1  0  0  0  0
  9 10  1  0  0  0  0
 10 11  1  0  0  0  0
 10 17  2  0  0  0  0
 11 12  2  0  0  0  0
 11 13  1  0  0  0  0
 13 14  1  0  0  0  0
 13 15  1  0  0  0  0
 14 34  1  0  0  0  0
 14 35  1  0  0  0  0
 14 36  1  0  0  0  0
 15 16  2  0  0  0  0
 15 18  1  0  0  0  0
 16 21  1  0  0  0  0
 17 18  1  0  0  0  0
 17 37  1  0  0  0  0
 18 19  2  0  0  0  0
 19 20  1  0  0  0  0
 19 38  1  0  0  0  0
 20 21  2  0  0  0  0
 21 22  1  0  0  0  0
 22 23  1  0  0  0  0
 22 39  1  0  0  0  0
 23 24  1  0  0  0  0
 23 25  1  0  0  0  0
 23 40  1  6  0  0  0
 24 41  1  0  0  0  0
 24 42  1  0  0  0  0
 24 43  1  0  0  0  0
 25 26  1  0  0  0  0
 25 44  1  0  0  0  0
 25 45  1  0  0  0  0
 26 27  1  0  0  0  0
 26 30  1  0  0  0  0
 27 28  2  0  0  0  0
 28 29  1  0  0  0  0
 28 46  1  0  0  0  0
 29 30  2  0  0  0  0
M  END
$$$$
