CAT-17c
 OpenBabel02232411143D
Structure written by MMmdl.
 44 47  0  0  1  0  0  0  0  0999 V2000
   11.6490   -2.2680    1.2100 C   0  0  0  0  0  0  0  0  0  0  0  0
   13.0010   -2.3230    0.6160 N   0  0  0  0  0  0  0  0  0  0  0  0
   14.1810   -2.3180    1.3530 C   0  0  0  0  0  0  0  0  0  0  0  0
   14.3100   -2.4220    2.7060 N   0  0  0  0  0  0  0  0  0  0  0  0
   15.2830   -2.2590    0.4880 N   0  3  0  0  0  0  0  0  0  0  0  0
   14.8490   -2.5830   -0.9230 C   0  0  1  0  0  0  0  0  0  0  0  0
   15.4490   -1.5630   -1.8660 C   0  0  0  0  0  0  0  0  0  0  0  0
   16.3220   -1.9420   -2.8930 C   0  0  0  0  0  0  0  0  0  0  0  0
   16.8000   -0.9740   -3.7820 C   0  0  0  0  0  0  0  0  0  0  0  0
   16.4400    0.3670   -3.6360 C   0  0  0  0  0  0  0  0  0  0  0  0
   15.6150    0.7640   -2.5700 C   0  0  0  0  0  0  0  0  0  0  0  0
   15.2710    2.1840   -2.3400 C   0  0  0  0  0  0  0  0  0  0  0  0
   14.8380    3.0090   -3.3900 C   0  0  0  0  0  0  0  0  0  0  0  0
   14.4400    4.3230   -3.1300 C   0  0  0  0  0  0  0  0  0  0  0  0
   14.4510    4.8250   -1.8250 C   0  0  0  0  0  0  0  0  0  0  0  0
   14.9130    4.0110   -0.7780 C   0  0  0  0  0  0  0  0  0  0  0  0
   14.9200    4.4910    0.5730 C   0  0  0  0  0  0  0  0  0  0  0  0
   14.9200    4.8740    1.6640 N   0  0  0  0  0  0  0  0  0  0  0  0
   15.3430    2.7010   -1.0370 C   0  0  0  0  0  0  0  0  0  0  0  0
   15.1060   -0.2130   -1.7010 C   0  0  0  0  0  0  0  0  0  0  0  0
   15.0780   -4.0400   -1.2940 C   0  0  0  0  0  0  0  0  0  0  0  0
   16.3080   -4.7820   -0.7990 C   0  0  0  0  0  0  0  0  0  0  0  0
   14.9460   -5.1430   -0.2500 C   0  0  0  0  0  0  0  0  0  0  0  0
   13.2950   -2.4100   -0.8310 C   0  0  0  0  0  0  0  0  0  0  0  0
   12.4390   -2.3620   -1.6540 O   0  0  0  0  0  0  0  0  0  0  0  0
   11.6740   -2.5870    2.2860 H   0  0  0  0  0  0  0  0  0  0  0  0
   11.2560   -1.2190    1.1380 H   0  0  0  0  0  0  0  0  0  0  0  0
   10.9720   -2.9690    0.6500 H   0  0  0  0  0  0  0  0  0  0  0  0
   13.5840   -2.0430    3.3630 H   0  0  0  0  0  0  0  0  0  0  0  0
   16.2070   -2.6140    0.8570 H   0  0  0  0  0  0  0  0  0  0  0  0
   16.6300   -2.9830   -3.0010 H   0  0  0  0  0  0  0  0  0  0  0  0
   17.4690   -1.2710   -4.5970 H   0  0  0  0  0  0  0  0  0  0  0  0
   16.8040    1.1070   -4.3550 H   0  0  0  0  0  0  0  0  0  0  0  0
   14.7970    2.6210   -4.4120 H   0  0  0  0  0  0  0  0  0  0  0  0
   14.0970    4.9570   -3.9560 H   0  0  0  0  0  0  0  0  0  0  0  0
   14.0830    5.8340   -1.6270 H   0  0  0  0  0  0  0  0  0  0  0  0
   15.7280    2.0770   -0.2290 H   0  0  0  0  0  0  0  0  0  0  0  0
   14.4400    0.0750   -0.8880 H   0  0  0  0  0  0  0  0  0  0  0  0
   14.7220   -4.2640   -2.3160 H   0  0  0  0  0  0  0  0  0  0  0  0
   16.8290   -5.4490   -1.4840 H   0  0  0  0  0  0  0  0  0  0  0  0
   17.0230   -4.2610   -0.1590 H   0  0  0  0  0  0  0  0  0  0  0  0
   14.7090   -4.8790    0.7880 H   0  0  0  0  0  0  0  0  0  0  0  0
   14.4690   -6.0850   -0.5510 H   0  0  0  0  0  0  0  0  0  0  0  0
   15.2840   -2.3680    3.1190 H   0  0  0  0  0  0  0  0  0  0  0  0
  1  2  1  0  0  0  0
  1 26  1  0  0  0  0
  1 27  1  0  0  0  0
  1 28  1  0  0  0  0
  2  3  1  0  0  0  0
  2 24  1  0  0  0  0
  3  4  1  0  0  0  0
  3  5  2  0  0  0  0
  4 29  1  0  0  0  0
  4 44  1  0  0  0  0
  5  6  1  0  0  0  0
  5 30  1  0  0  0  0
  6  7  1  6  0  0  0
  6 21  1  0  0  0  0
  6 24  1  0  0  0  0
  7  8  2  0  0  0  0
  7 20  1  0  0  0  0
  8  9  1  0  0  0  0
  8 31  1  0  0  0  0
  9 10  2  0  0  0  0
  9 32  1  0  0  0  0
 10 11  1  0  0  0  0
 10 33  1  0  0  0  0
 11 12  1  0  0  0  0
 11 20  2  0  0  0  0
 12 13  2  0  0  0  0
 12 19  1  0  0  0  0
 13 14  1  0  0  0  0
 13 34  1  0  0  0  0
 14 15  2  0  0  0  0
 14 35  1  0  0  0  0
 15 16  1  0  0  0  0
 15 36  1  0  0  0  0
 16 17  1  0  0  0  0
 16 19  2  0  0  0  0
 17 18  3  0  0  0  0
 19 37  1  0  0  0  0
 20 38  1  0  0  0  0
 21 22  1  0  0  0  0
 21 23  1  0  0  0  0
 21 39  1  0  0  0  0
 22 23  1  0  0  0  0
 22 40  1  0  0  0  0
 22 41  1  0  0  0  0
 23 42  1  0  0  0  0
 23 43  1  0  0  0  0
 24 25  2  0  0  0  0
M  CHG  1   5   1
M  END
$$$$
