1b
 OpenBabel02232411173D

 52 54  0  0  1  0  0  0  0  0999 V2000
   17.9670  -13.0410   21.5430 N   0  0  0  0  0  0  0  0  0  0  0  0
   17.6620  -11.6990   20.9570 C   0  0  2  0  0  0  0  0  0  0  0  0
   17.0970  -13.6330   22.4180 C   0  0  0  0  0  0  0  0  0  0  0  0
   16.0800  -13.0460   22.7840 O   0  0  0  0  0  0  0  0  0  0  0  0
   16.2330  -11.6790   20.3500 C   0  0  0  0  0  0  0  0  0  0  0  0
   15.7770  -12.5950   19.6810 O   0  0  0  0  0  0  0  0  0  0  0  0
   18.7440  -11.4660   19.8860 C   0  0  0  0  0  0  0  0  0  0  0  0
   17.4150  -15.0560   22.9480 C   0  0  2  0  0  0  0  0  0  0  0  0
   15.5350  -10.5030   20.5690 N   0  0  0  0  0  0  0  0  0  0  0  0
   19.8270  -12.5430   20.0820 C   0  0  0  0  0  0  0  0  0  0  0  0
   16.1040  -15.8660   22.8910 N   0  3  0  0  0  0  0  0  0  0  0  0
   17.9210  -15.0290   24.4030 C   0  0  0  0  0  0  0  0  0  0  0  0
   14.0990  -10.3480   20.2270 C   0  0  0  0  0  0  0  0  0  0  0  0
   19.2140  -13.6390   20.9740 C   0  0  0  0  0  0  0  0  0  0  0  0
   19.3680  -14.6100   24.5170 C   0  0  0  0  0  0  0  0  0  0  0  0
   13.2140  -10.2900   21.4530 C   0  0  0  0  0  0  0  0  0  0  0  0
   19.7150  -13.4760   25.2610 C   0  0  0  0  0  0  0  0  0  0  0  0
   12.2380  -11.2680   21.6800 C   0  0  0  0  0  0  0  0  0  0  0  0
   21.0550  -13.0980   25.3960 C   0  0  0  0  0  0  0  0  0  0  0  0
   11.3700  -11.1530   22.7710 C   0  0  0  0  0  0  0  0  0  0  0  0
   22.0630  -13.8740   24.8200 C   0  0  0  0  0  0  0  0  0  0  0  0
   11.4770  -10.0770   23.6580 C   0  0  0  0  0  0  0  0  0  0  0  0
   21.7220  -15.0260   24.0990 C   0  0  0  0  0  0  0  0  0  0  0  0
   12.4800   -9.1300   23.4360 C   0  0  0  0  0  0  0  0  0  0  0  0
   20.3830  -15.3900   23.9410 C   0  0  0  0  0  0  0  0  0  0  0  0
   13.3410   -9.2120   22.3420 C   0  0  0  0  0  0  0  0  0  0  0  0
   17.7590  -10.9300   21.7710 H   0  0  0  0  0  0  0  0  0  0  0  0
   18.3170  -11.5380   18.8600 H   0  0  0  0  0  0  0  0  0  0  0  0
   19.1740  -10.4540   20.0390 H   0  0  0  0  0  0  0  0  0  0  0  0
   18.1530  -15.6130   22.3000 H   0  0  0  0  0  0  0  0  0  0  0  0
   15.9600   -9.7570   21.1490 H   0  0  0  0  0  0  0  0  0  0  0  0
   20.1400  -12.9810   19.1040 H   0  0  0  0  0  0  0  0  0  0  0  0
   20.7270  -12.1090   20.5780 H   0  0  0  0  0  0  0  0  0  0  0  0
   16.2660  -16.8250   23.3200 H   0  0  0  0  0  0  0  0  0  0  0  0
   15.3280  -15.3540   23.4250 H   0  0  0  0  0  0  0  0  0  0  0  0
   15.8070  -16.0120   21.8860 H   0  0  0  0  0  0  0  0  0  0  0  0
   17.2680  -14.3580   25.0170 H   0  0  0  0  0  0  0  0  0  0  0  0
   17.8480  -16.0690   24.8320 H   0  0  0  0  0  0  0  0  0  0  0  0
   13.9900   -9.3790   19.6620 H   0  0  0  0  0  0  0  0  0  0  0  0
   13.7890  -11.1900   19.5480 H   0  0  0  0  0  0  0  0  0  0  0  0
   19.9110  -13.9200   21.8050 H   0  0  0  0  0  0  0  0  0  0  0  0
   18.9620  -14.5470   20.3680 H   0  0  0  0  0  0  0  0  0  0  0  0
   18.9410  -12.8990   25.7580 H   0  0  0  0  0  0  0  0  0  0  0  0
   12.1420  -12.1260   21.0100 H   0  0  0  0  0  0  0  0  0  0  0  0
   21.2910  -12.1920   25.9610 H   0  0  0  0  0  0  0  0  0  0  0  0
   10.5980  -11.9130   22.9330 H   0  0  0  0  0  0  0  0  0  0  0  0
   23.1150  -13.5980   24.9370 H   0  0  0  0  0  0  0  0  0  0  0  0
   22.4970  -15.6570   23.6560 H   0  0  0  0  0  0  0  0  0  0  0  0
   12.6960   -7.8430   24.5610 Cl  0  0  0  0  0  0  0  0  0  0  0  0
   20.1270  -16.2920   23.3790 H   0  0  0  0  0  0  0  0  0  0  0  0
   14.1050   -8.4550   22.1730 H   0  0  0  0  0  0  0  0  0  0  0  0
   10.7820   -9.9910   24.4990 H   0  0  0  0  0  0  0  0  0  0  0  0
  1  2  1  0  0  0  0
  1 14  1  0  0  0  0
  1  3  1  0  0  0  0
  2  5  1  0  0  0  0
  2  7  1  0  0  0  0
  2 27  1  1  0  0  0
  3  8  1  0  0  0  0
  3  4  2  0  0  0  0
  5  6  2  0  0  0  0
  5  9  1  0  0  0  0
  7 10  1  0  0  0  0
  7 28  1  0  0  0  0
  7 29  1  0  0  0  0
  8 11  1  0  0  0  0
  8 12  1  0  0  0  0
  8 30  1  6  0  0  0
  9 13  1  0  0  0  0
  9 31  1  0  0  0  0
 10 14  1  0  0  0  0
 10 32  1  0  0  0  0
 10 33  1  0  0  0  0
 11 34  1  0  0  0  0
 11 35  1  0  0  0  0
 11 36  1  0  0  0  0
 12 15  1  0  0  0  0
 12 37  1  0  0  0  0
 12 38  1  0  0  0  0
 13 16  1  0  0  0  0
 13 39  1  0  0  0  0
 13 40  1  0  0  0  0
 14 41  1  0  0  0  0
 14 42  1  0  0  0  0
 15 17  2  0  0  0  0
 15 25  1  0  0  0  0
 16 18  2  0  0  0  0
 16 26  1  0  0  0  0
 17 19  1  0  0  0  0
 17 43  1  0  0  0  0
 18 20  1  0  0  0  0
 18 44  1  0  0  0  0
 19 21  2  0  0  0  0
 19 45  1  0  0  0  0
 20 22  2  0  0  0  0
 20 46  1  0  0  0  0
 21 23  1  0  0  0  0
 21 47  1  0  0  0  0
 22 24  1  0  0  0  0
 22 52  1  0  0  0  0
 23 25  2  0  0  0  0
 23 48  1  0  0  0  0
 24 26  2  0  0  0  0
 24 49  1  0  0  0  0
 25 50  1  0  0  0  0
 26 51  1  0  0  0  0
M  CHG  1  11   1
M  END
$$$$
