23483
 OpenBabel02232411173D
Structure written by MMmdl.
 57 60  0  0  0  0  0  0  0  0999 V2000
   42.3810   18.0260   12.6550 O   0  0  0  0  0  0  0  0  0  0  0  0
   41.2420   17.7290   13.0310 C   0  0  0  0  0  0  0  0  0  0  0  0
   40.1860   18.3440   12.7660 O   0  5  0  0  0  0  0  0  0  0  0  0
   41.0600   16.4650   13.9230 C   0  0  0  0  0  0  0  0  0  0  0  0
   42.4180   15.9200   13.9120 O   0  0  0  0  0  0  0  0  0  0  0  0
   42.6490   14.9740   14.8600 C   0  0  0  0  0  0  0  0  0  0  0  0
   42.0660   13.6490   14.8260 C   0  0  0  0  0  0  0  0  0  0  0  0
   40.8800   13.1250   13.4300 Br  0  0  0  0  0  0  0  0  0  0  0  0
   42.4820   12.8160   15.8310 C   0  0  0  0  0  0  0  0  0  0  0  0
   42.0610   11.4630   16.1320 C   0  0  0  0  0  0  0  0  0  0  0  0
   42.9280   10.5020   16.7010 C   0  0  0  0  0  0  0  0  0  0  0  0
   42.4810    9.1990   16.8920 C   0  0  0  0  0  0  0  0  0  0  0  0
   41.2030    8.7850   16.4830 C   0  0  0  0  0  0  0  0  0  0  0  0
   40.3300    9.7330   15.9330 C   0  0  0  0  0  0  0  0  0  0  0  0
   38.9720    9.4730   15.5520 N   0  0  0  0  0  0  0  0  0  0  0  0
   38.5430    8.1110   15.1400 C   0  0  0  0  0  0  0  0  0  0  0  0
   37.0120    8.0210   15.3600 C   0  0  0  0  0  0  0  0  0  0  0  0
   36.4960    6.6310   14.9460 C   0  0  0  0  0  0  0  0  0  0  0  0
   36.8100    6.3810   13.5040 N   0  0  0  0  0  0  0  0  0  0  0  0
   35.8250    5.2750   12.6690 S   0  0  0  0  0  0  0  0  0  0  0  0
   34.7870    4.7580   13.5640 O   0  0  0  0  0  0  0  0  0  0  0  0
   35.2980    5.9840   11.4900 O   0  0  0  0  0  0  0  0  0  0  0  0
   36.7800    3.9340   12.1000 C   0  0  0  0  0  0  0  0  0  0  0  0
   36.5260    3.3980   10.8340 C   0  0  0  0  0  0  0  0  0  0  0  0
   37.2490    2.2900   10.3740 C   0  0  0  0  0  0  0  0  0  0  0  0
   38.2290    1.7100   11.1830 C   0  0  0  0  0  0  0  0  0  0  0  0
   38.4730    2.2330   12.4580 C   0  0  0  0  0  0  0  0  0  0  0  0
   37.7430    3.3310   12.9200 C   0  0  0  0  0  0  0  0  0  0  0  0
   38.2810    6.4410   13.2430 C   0  0  0  0  0  0  0  0  0  0  0  0
   38.8400    7.8190   13.6430 C   0  0  0  0  0  0  0  0  0  0  0  0
   40.7500   11.0780   15.8250 C   0  0  0  0  0  0  0  0  0  0  0  0
   43.6680   13.6620   16.7940 S   0  0  0  0  0  0  0  0  0  0  0  0
   43.5600   15.1430   15.8710 C   0  0  0  0  0  0  0  0  0  0  0  0
   44.4010   16.3590   16.2600 C   0  0  0  0  0  0  0  0  0  0  0  0
   45.0510   16.2310   17.3240 O   0  0  0  0  0  0  0  0  0  0  0  0
   44.4140   17.3370   15.5130 O   0  5  0  0  0  0  0  0  0  0  0  0
   40.3570   15.7420   13.4610 H   0  0  0  0  0  0  0  0  0  0  0  0
   40.7410   16.7140   14.9550 H   0  0  0  0  0  0  0  0  0  0  0  0
   43.9500   10.7560   16.9860 H   0  0  0  0  0  0  0  0  0  0  0  0
   43.1390    8.4600   17.3530 H   0  0  0  0  0  0  0  0  0  0  0  0
   40.9200    7.7410   16.5960 H   0  0  0  0  0  0  0  0  0  0  0  0
   38.6230   10.1660   14.8500 H   0  0  0  0  0  0  0  0  0  0  0  0
   39.0450    7.3350   15.7710 H   0  0  0  0  0  0  0  0  0  0  0  0
   36.7800    8.1740   16.4400 H   0  0  0  0  0  0  0  0  0  0  0  0
   36.4990    8.8020   14.7540 H   0  0  0  0  0  0  0  0  0  0  0  0
   36.9820    5.8480   15.5930 H   0  0  0  0  0  0  0  0  0  0  0  0
   35.3880    6.5990   15.1010 H   0  0  0  0  0  0  0  0  0  0  0  0
   35.7530    3.8230   10.1840 H   0  0  0  0  0  0  0  0  0  0  0  0
   37.0440    1.8640    9.3880 H   0  0  0  0  0  0  0  0  0  0  0  0
   38.7980    0.8460   10.8300 H   0  0  0  0  0  0  0  0  0  0  0  0
   39.2390    1.7810   13.0950 H   0  0  0  0  0  0  0  0  0  0  0  0
   37.9450    3.6920   13.9360 H   0  0  0  0  0  0  0  0  0  0  0  0
   38.8270    5.6600   13.8480 H   0  0  0  0  0  0  0  0  0  0  0  0
   38.4770    6.2590   12.1600 H   0  0  0  0  0  0  0  0  0  0  0  0
   38.3760    8.6120   13.0140 H   0  0  0  0  0  0  0  0  0  0  0  0
   39.9430    7.8070   13.4830 H   0  0  0  0  0  0  0  0  0  0  0  0
   40.0170   11.8160   15.4990 H   0  0  0  0  0  0  0  0  0  0  0  0
  1  2  2  0  0  0  0
  2  3  1  0  0  0  0
  2  4  1  0  0  0  0
  4  5  1  0  0  0  0
  4 37  1  0  0  0  0
  4 38  1  0  0  0  0
  5  6  1  0  0  0  0
  6 33  2  0  0  0  0
  6  7  1  0  0  0  0
  7  8  1  0  0  0  0
  7  9  2  0  0  0  0
  9 10  1  0  0  0  0
  9 32  1  0  0  0  0
 10 31  2  0  0  0  0
 10 11  1  0  0  0  0
 11 12  2  0  0  0  0
 11 39  1  0  0  0  0
 12 13  1  0  0  0  0
 12 40  1  0  0  0  0
 13 14  2  0  0  0  0
 13 41  1  0  0  0  0
 14 15  1  0  0  0  0
 14 31  1  0  0  0  0
 15 16  1  0  0  0  0
 15 42  1  0  0  0  0
 16 30  1  0  0  0  0
 16 17  1  0  0  0  0
 16 43  1  0  0  0  0
 17 18  1  0  0  0  0
 17 44  1  0  0  0  0
 17 45  1  0  0  0  0
 18 19  1  0  0  0  0
 18 46  1  0  0  0  0
 18 47  1  0  0  0  0
 19 20  1  0  0  0  0
 19 29  1  0  0  0  0
 20 21  2  0  0  0  0
 20 22  2  0  0  0  0
 20 23  1  0  0  0  0
 23 28  2  0  0  0  0
 23 24  1  0  0  0  0
 24 25  2  0  0  0  0
 24 48  1  0  0  0  0
 25 26  1  0  0  0  0
 25 49  1  0  0  0  0
 26 27  2  0  0  0  0
 26 50  1  0  0  0  0
 27 28  1  0  0  0  0
 27 51  1  0  0  0  0
 28 52  1  0  0  0  0
 29 30  1  0  0  0  0
 29 53  1  0  0  0  0
 29 54  1  0  0  0  0
 30 55  1  0  0  0  0
 30 56  1  0  0  0  0
 31 57  1  0  0  0  0
 32 33  1  0  0  0  0
 33 34  1  0  0  0  0
 34 35  2  0  0  0  0
 34 36  1  0  0  0  0
M  CHG  2   3  -1  36  -1
M  END
$$$$
