p38a_2v
 OpenBabel02232411163D
Structure written by MMmdl.
 35 37  0  0  0  0  0  0  0  0999 V2000
   38.2650   36.5260   17.1830 C   0  0  0  0  0  0  0  0  0  0  0  0
   34.4860   35.1130   21.2350 C   0  0  0  0  0  0  0  0  0  0  0  0
   37.4720   36.0750   18.2360 C   0  0  0  0  0  0  0  0  0  0  0  0
   33.9640   39.2040   23.7650 C   0  0  0  0  0  0  0  0  0  0  0  0
   33.1870   39.1360   26.1360 C   0  0  0  0  0  0  0  0  0  0  0  0
   34.6150   37.9880   21.3780 C   0  0  0  0  0  0  0  0  0  0  0  0
   35.0230   37.3230   20.1710 C   0  0  0  0  0  0  0  0  0  0  0  0
   37.6250   36.6870   15.9470 C   0  0  0  0  0  0  0  0  0  0  0  0
   36.2760   36.3950   15.7330 C   0  0  0  0  0  0  0  0  0  0  0  0
   35.5040   35.9310   16.8040 C   0  0  0  0  0  0  0  0  0  0  0  0
   34.2040   37.2270   22.5120 C   0  0  0  0  0  0  0  0  0  0  0  0
   34.6110   39.4020   21.5170 C   0  0  0  0  0  0  0  0  0  0  0  0
   34.9900   35.9720   20.1310 C   0  0  0  0  0  0  0  0  0  0  0  0
   36.1080   35.7630   18.0530 C   0  0  0  0  0  0  0  0  0  0  0  0
   33.6660   35.0580   23.6210 C   0  0  0  0  0  0  0  0  0  0  0  0
   37.9970   35.9360   19.4460 F   0  0  0  0  0  0  0  0  0  0  0  0
   35.3780   35.1450   19.0770 O   0  0  0  0  0  0  0  0  0  0  0  0
   34.3000   40.0200   22.6650 N   0  0  0  0  0  0  0  0  0  0  0  0
   34.3610   33.9080   21.1900 O   0  0  0  0  0  0  0  0  0  0  0  0
   34.1310   35.8270   22.4320 N   0  0  0  0  0  0  0  0  0  0  0  0
   33.8670   37.8270   23.7010 N   0  0  0  0  0  0  0  0  0  0  0  0
   33.7910   39.8320   24.9780 N   0  0  0  0  0  0  0  0  0  0  0  0
   39.3200   36.7790   17.3220 H   0  0  0  0  0  0  0  0  0  0  0  0
   33.7220   38.1710   26.3460 H   0  0  0  0  0  0  0  0  0  0  0  0
   35.3570   37.9360   19.3310 H   0  0  0  0  0  0  0  0  0  0  0  0
   35.8130   36.5380   14.7550 H   0  0  0  0  0  0  0  0  0  0  0  0
   34.4400   35.7200   16.6570 H   0  0  0  0  0  0  0  0  0  0  0  0
   34.8600   40.0400   20.6530 H   0  0  0  0  0  0  0  0  0  0  0  0
   34.2990   35.3070   24.5170 H   0  0  0  0  0  0  0  0  0  0  0  0
   32.6000   35.3230   23.8570 H   0  0  0  0  0  0  0  0  0  0  0  0
   33.7350   33.9560   23.4230 H   0  0  0  0  0  0  0  0  0  0  0  0
   33.7130   40.8660   25.0150 H   0  0  0  0  0  0  0  0  0  0  0  0
   38.3310   37.1820   14.9330 F   0  0  0  0  0  0  0  0  0  0  0  0
   33.2940   39.8050   27.0320 H   0  0  0  0  0  0  0  0  0  0  0  0
   32.1000   38.9170   25.9690 H   0  0  0  0  0  0  0  0  0  0  0  0
  1  3  2  0  0  0  0
  1  8  1  0  0  0  0
  1 23  1  0  0  0  0
  2 13  1  0  0  0  0
  2 19  2  0  0  0  0
  2 20  1  0  0  0  0
  3 14  1  0  0  0  0
  3 16  1  0  0  0  0
  4 18  2  0  0  0  0
  4 21  1  0  0  0  0
  4 22  1  0  0  0  0
  5 22  1  0  0  0  0
  5 24  1  0  0  0  0
  5 34  1  0  0  0  0
  5 35  1  0  0  0  0
  6  7  1  0  0  0  0
  6 11  1  0  0  0  0
  6 12  2  0  0  0  0
  7 13  2  0  0  0  0
  7 25  1  0  0  0  0
  8  9  2  0  0  0  0
  8 33  1  0  0  0  0
  9 10  1  0  0  0  0
  9 26  1  0  0  0  0
 10 14  2  0  0  0  0
 10 27  1  0  0  0  0
 11 20  1  0  0  0  0
 11 21  2  0  0  0  0
 12 18  1  0  0  0  0
 12 28  1  0  0  0  0
 13 17  1  0  0  0  0
 14 17  1  0  0  0  0
 15 20  1  0  0  0  0
 15 29  1  0  0  0  0
 15 30  1  0  0  0  0
 15 31  1  0  0  0  0
 22 32  1  0  0  0  0
M  END
$$$$
