p38a_3flw
 OpenBabel02232411163D
Structure written by MMmdl.
 49 51  0  0  0  0  0  0  0  0999 V2000
   38.2760   36.5400   17.1660 C   0  0  0  0  0  0  0  0  0  0  0  0
   37.6290   36.7020   15.9330 C   0  0  0  0  0  0  0  0  0  0  0  0
   31.5930   38.5480   25.7230 C   0  0  0  0  0  0  0  0  0  0  0  0
   30.8350   39.1360   24.5290 C   0  0  0  0  0  0  0  0  0  0  0  0
   33.8530   38.3400   26.9020 C   0  0  0  0  0  0  0  0  0  0  0  0
   33.7020   35.0310   23.6170 C   0  0  0  0  0  0  0  0  0  0  0  0
   38.0250   35.9430   19.4280 F   0  0  0  0  0  0  0  0  0  0  0  0
   37.4930   36.0800   18.2200 C   0  0  0  0  0  0  0  0  0  0  0  0
   38.3280   37.2030   14.9170 F   0  0  0  0  0  0  0  0  0  0  0  0
   36.2810   36.4020   15.7260 C   0  0  0  0  0  0  0  0  0  0  0  0
   35.5190   35.9270   16.7990 C   0  0  0  0  0  0  0  0  0  0  0  0
   36.1310   35.7560   18.0440 C   0  0  0  0  0  0  0  0  0  0  0  0
   35.4090   35.1280   19.0670 O   0  0  0  0  0  0  0  0  0  0  0  0
   35.0360   35.9470   20.1330 C   0  0  0  0  0  0  0  0  0  0  0  0
   35.0830   37.2990   20.1820 C   0  0  0  0  0  0  0  0  0  0  0  0
   34.6870   37.9590   21.3930 C   0  0  0  0  0  0  0  0  0  0  0  0
   34.7030   39.3750   21.5410 C   0  0  0  0  0  0  0  0  0  0  0  0
   34.3650   39.9920   22.6770 N   0  0  0  0  0  0  0  0  0  0  0  0
   34.5290   35.0880   21.2340 C   0  0  0  0  0  0  0  0  0  0  0  0
   34.3930   33.8840   21.1800 O   0  0  0  0  0  0  0  0  0  0  0  0
   34.1860   35.7980   22.4360 N   0  0  0  0  0  0  0  0  0  0  0  0
   34.2620   37.2000   22.5220 C   0  0  0  0  0  0  0  0  0  0  0  0
   33.9090   37.7990   23.7050 N   0  0  0  0  0  0  0  0  0  0  0  0
   33.9600   39.1780   23.7620 C   0  0  0  0  0  0  0  0  0  0  0  0
   33.6680   39.8370   24.9320 N   0  0  0  0  0  0  0  0  0  0  0  0
   32.9150   39.2630   26.0900 C   0  0  0  0  0  0  0  0  0  0  0  0
   33.4220   38.2020   28.3620 C   0  0  0  0  0  0  0  0  0  0  0  0
   33.8870   39.4030   29.0310 O   0  0  0  0  0  0  0  0  0  0  0  0
   30.8740   40.5700   24.5260 O   0  0  0  0  0  0  0  0  0  0  0  0
   39.3310   36.7980   17.3000 H   0  0  0  0  0  0  0  0  0  0  0  0
   30.9350   38.5820   26.6270 H   0  0  0  0  0  0  0  0  0  0  0  0
   31.7940   37.4680   25.4990 H   0  0  0  0  0  0  0  0  0  0  0  0
   31.3360   38.8820   23.5670 H   0  0  0  0  0  0  0  0  0  0  0  0
   29.7780   38.7910   24.5380 H   0  0  0  0  0  0  0  0  0  0  0  0
   33.8790   37.3190   26.4430 H   0  0  0  0  0  0  0  0  0  0  0  0
   34.8920   38.7570   26.8780 H   0  0  0  0  0  0  0  0  0  0  0  0
   32.6430   35.3230   23.8550 H   0  0  0  0  0  0  0  0  0  0  0  0
   33.7410   33.9300   23.4110 H   0  0  0  0  0  0  0  0  0  0  0  0
   34.3390   35.2580   24.5150 H   0  0  0  0  0  0  0  0  0  0  0  0
   35.8110   36.5480   14.7510 H   0  0  0  0  0  0  0  0  0  0  0  0
   34.4550   35.7080   16.6570 H   0  0  0  0  0  0  0  0  0  0  0  0
   35.4180   37.9120   19.3430 H   0  0  0  0  0  0  0  0  0  0  0  0
   34.9940   40.0060   20.6860 H   0  0  0  0  0  0  0  0  0  0  0  0
   33.6140   40.8770   24.9040 H   0  0  0  0  0  0  0  0  0  0  0  0
   32.6520   40.1640   26.7190 H   0  0  0  0  0  0  0  0  0  0  0  0
   32.3170   38.1310   28.4770 H   0  0  0  0  0  0  0  0  0  0  0  0
   33.9200   37.3220   28.8380 H   0  0  0  0  0  0  0  0  0  0  0  0
   33.5750   39.3810   29.9700 H   0  0  0  0  0  0  0  0  0  0  0  0
   30.1010   40.9280   25.0490 H   0  0  0  0  0  0  0  0  0  0  0  0
  1  2  2  0  0  0  0
  1  8  1  0  0  0  0
  1 30  1  0  0  0  0
  2  9  1  0  0  0  0
  2 10  1  0  0  0  0
  3  4  1  0  0  0  0
  3 26  1  0  0  0  0
  3 31  1  0  0  0  0
  3 32  1  0  0  0  0
  4 29  1  0  0  0  0
  4 33  1  0  0  0  0
  4 34  1  0  0  0  0
  5 26  1  0  0  0  0
  5 27  1  0  0  0  0
  5 35  1  0  0  0  0
  5 36  1  0  0  0  0
  6 21  1  0  0  0  0
  6 37  1  0  0  0  0
  6 38  1  0  0  0  0
  6 39  1  0  0  0  0
  7  8  1  0  0  0  0
  8 12  2  0  0  0  0
 10 11  2  0  0  0  0
 10 40  1  0  0  0  0
 11 12  1  0  0  0  0
 11 41  1  0  0  0  0
 12 13  1  0  0  0  0
 13 14  1  0  0  0  0
 14 15  2  0  0  0  0
 14 19  1  0  0  0  0
 15 16  1  0  0  0  0
 15 42  1  0  0  0  0
 16 17  2  0  0  0  0
 16 22  1  0  0  0  0
 17 18  1  0  0  0  0
 17 43  1  0  0  0  0
 18 24  2  0  0  0  0
 19 20  2  0  0  0  0
 19 21  1  0  0  0  0
 21 22  1  0  0  0  0
 22 23  2  0  0  0  0
 23 24  1  0  0  0  0
 24 25  1  0  0  0  0
 25 26  1  0  0  0  0
 25 44  1  0  0  0  0
 26 45  1  0  0  0  0
 27 28  1  0  0  0  0
 27 46  1  0  0  0  0
 27 47  1  0  0  0  0
 28 48  1  0  0  0  0
 29 49  1  0  0  0  0
M  END
$$$$
