46
 OpenBabel02232411163D
Structure written by MMmdl.
 45 48  0  0  0  0  0  0  0  0999 V2000
    3.5450  -48.4080    7.1570 O   0  0  0  0  0  0  0  0  0  0  0  0
    3.1510  -49.3780    6.4950 C   0  0  0  0  0  0  0  0  0  0  0  0
    3.8610  -50.2220    5.9140 O   0  5  0  0  0  0  0  0  0  0  0  0
    1.6340  -49.6110    6.3750 C   0  0  0  0  0  0  0  0  0  0  0  0
   -0.2930  -50.8380    6.5270 C   0  0  0  0  0  0  0  0  0  0  0  0
   -1.2730  -51.8180    6.7640 C   0  0  0  0  0  0  0  0  0  0  0  0
   -2.5820  -51.5050    6.4310 C   0  0  0  0  0  0  0  0  0  0  0  0
   -2.9180  -50.2510    5.8690 C   0  0  0  0  0  0  0  0  0  0  0  0
   -1.9550  -49.2790    5.6330 C   0  0  0  0  0  0  0  0  0  0  0  0
   -0.6170  -49.5500    5.9640 C   0  0  0  0  0  0  0  0  0  0  0  0
    0.6160  -48.7950    5.8930 C   0  0  0  0  0  0  0  0  0  0  0  0
    0.7010  -47.3920    5.4090 C   0  0  0  0  0  0  0  0  0  0  0  0
    0.6540  -46.3660    6.5560 C   0  0  0  0  0  0  0  0  0  0  0  0
   -0.6570  -46.3920    7.3370 C   0  0  0  0  0  0  0  0  0  0  0  0
   -1.6510  -45.8350    6.4000 O   0  0  0  0  0  0  0  0  0  0  0  0
   -2.9090  -45.6080    6.8820 C   0  0  0  0  0  0  0  0  0  0  0  0
   -5.0110  -44.4740    6.4480 C   0  0  0  0  0  0  0  0  0  0  0  0
   -3.7160  -44.8140    6.0420 C   0  0  0  0  0  0  0  0  0  0  0  0
   -1.0210  -52.7850    7.1990 H   0  0  0  0  0  0  0  0  0  0  0  0
   -3.3770  -52.2320    6.6060 H   0  0  0  0  0  0  0  0  0  0  0  0
   -3.9620  -50.0540    5.6230 H   0  0  0  0  0  0  0  0  0  0  0  0
   -2.2430  -48.3170    5.2030 H   0  0  0  0  0  0  0  0  0  0  0  0
   -0.1710  -47.1870    4.7350 H   0  0  0  0  0  0  0  0  0  0  0  0
    1.6410  -47.2250    4.8330 H   0  0  0  0  0  0  0  0  0  0  0  0
    0.7800  -45.3430    6.1320 H   0  0  0  0  0  0  0  0  0  0  0  0
    1.4810  -46.5790    7.2770 H   0  0  0  0  0  0  0  0  0  0  0  0
   -0.6280  -45.7160    8.2170 H   0  0  0  0  0  0  0  0  0  0  0  0
   -0.9900  -47.4210    7.5870 H   0  0  0  0  0  0  0  0  0  0  0  0
   -3.3390  -44.4650    5.0860 H   0  0  0  0  0  0  0  0  0  0  0  0
   -3.3850  -46.1150    8.1100 C   0  0  0  0  0  0  0  0  0  0  0  0
   -5.6410  -43.8540    5.8120 H   0  0  0  0  0  0  0  0  0  0  0  0
   -2.7950  -46.7590    8.7520 H   0  0  0  0  0  0  0  0  0  0  0  0
    1.0900  -50.8500    6.7680 N   0  0  0  0  0  0  0  0  0  0  0  0
   -6.6370  -45.2370    9.7740 C   0  0  0  0  0  0  0  0  0  0  0  0
   -5.4000  -46.1730    9.7360 C   0  0  0  0  0  0  0  0  0  0  0  0
   -4.6760  -45.7730    8.4800 C   0  0  0  0  0  0  0  0  0  0  0  0
   -5.4840  -44.9400    7.6700 C   0  0  0  0  0  0  0  0  0  0  0  0
   -6.8100  -44.6830    8.3310 C   0  0  0  0  0  0  0  0  0  0  0  0
   -7.0570  -43.6030    8.3360 H   0  0  0  0  0  0  0  0  0  0  0  0
   -7.6210  -45.2340    7.8000 H   0  0  0  0  0  0  0  0  0  0  0  0
   -7.5380  -45.7880   10.1000 H   0  0  0  0  0  0  0  0  0  0  0  0
   -6.4520  -44.4010   10.4800 H   0  0  0  0  0  0  0  0  0  0  0  0
   -5.7220  -47.2400    9.6710 H   0  0  0  0  0  0  0  0  0  0  0  0
   -4.7680  -46.0480   10.6350 H   0  0  0  0  0  0  0  0  0  0  0  0
    1.5840  -51.6500    7.1450 H   0  0  0  0  0  0  0  0  0  0  0  0
  1  2  2  0  0  0  0
  2  3  1  0  0  0  0
  2  4  1  0  0  0  0
  4 11  2  0  0  0  0
  4 33  1  0  0  0  0
  5  6  2  0  0  0  0
  5 10  1  0  0  0  0
  5 33  1  0  0  0  0
  6  7  1  0  0  0  0
  6 19  1  0  0  0  0
  7  8  2  0  0  0  0
  7 20  1  0  0  0  0
  8  9  1  0  0  0  0
  8 21  1  0  0  0  0
  9 10  2  0  0  0  0
  9 22  1  0  0  0  0
 10 11  1  0  0  0  0
 11 12  1  0  0  0  0
 12 23  1  0  0  0  0
 12 24  1  0  0  0  0
 12 13  1  0  0  0  0
 13 14  1  0  0  0  0
 13 25  1  0  0  0  0
 13 26  1  0  0  0  0
 14 15  1  0  0  0  0
 14 27  1  0  0  0  0
 14 28  1  0  0  0  0
 15 16  1  0  0  0  0
 16 18  2  0  0  0  0
 16 30  1  0  0  0  0
 17 18  1  0  0  0  0
 17 31  1  0  0  0  0
 17 37  2  0  0  0  0
 18 29  1  0  0  0  0
 30 32  1  0  0  0  0
 30 36  2  0  0  0  0
 33 45  1  0  0  0  0
 34 35  1  0  0  0  0
 34 38  1  0  0  0  0
 34 41  1  0  0  0  0
 34 42  1  0  0  0  0
 35 36  1  0  0  0  0
 35 43  1  0  0  0  0
 35 44  1  0  0  0  0
 36 37  1  0  0  0  0
 37 38  1  0  0  0  0
 38 39  1  0  0  0  0
 38 40  1  0  0  0  0
M  CHG  1   3  -1
M  END
$$$$
