CAT-13i
 OpenBabel02232411143D
Structure written by MMmdl.
 46 49  0  0  1  0  0  0  0  0999 V2000
   11.6330   -2.2060    1.2250 C   0  0  0  0  0  0  0  0  0  0  0  0
   12.9910   -2.1870    0.6410 N   0  0  0  0  0  0  0  0  0  0  0  0
   14.1640   -2.3100    1.3860 C   0  0  0  0  0  0  0  0  0  0  0  0
   14.2860   -2.3840    2.7400 N   0  0  0  0  0  0  0  0  0  0  0  0
   15.2680   -2.3760    0.5290 N   0  3  0  0  0  0  0  0  0  0  0  0
   14.8110   -2.6940   -0.8760 C   0  0  2  0  0  0  0  0  0  0  0  0
   14.9740   -4.2020   -1.1560 C   0  0  0  0  0  0  0  0  0  0  0  0
   13.9140   -5.0520   -0.4780 C   0  0  0  0  0  0  0  0  0  0  0  0
   14.2500   -6.4160    0.1090 C   0  0  0  0  0  0  0  0  0  0  0  0
   13.9030   -5.2710    1.0330 C   0  0  0  0  0  0  0  0  0  0  0  0
   15.4760   -1.7140   -1.8220 C   0  0  0  0  0  0  0  0  0  0  0  0
   16.3550   -2.1230   -2.8300 C   0  0  0  0  0  0  0  0  0  0  0  0
   16.8780   -1.1720   -3.7140 C   0  0  0  0  0  0  0  0  0  0  0  0
   16.5470    0.1780   -3.5910 C   0  0  0  0  0  0  0  0  0  0  0  0
   15.7180    0.6070   -2.5400 C   0  0  0  0  0  0  0  0  0  0  0  0
   15.4160    2.0420   -2.3340 C   0  0  0  0  0  0  0  0  0  0  0  0
   15.5690    2.6020   -1.0550 C   0  0  0  0  0  0  0  0  0  0  0  0
   15.2100    3.9300   -0.8120 C   0  0  0  0  0  0  0  0  0  0  0  0
   14.7150    4.7240   -1.8490 C   0  0  0  0  0  0  0  0  0  0  0  0
   14.6240    4.1720   -3.1310 C   0  0  0  0  0  0  0  0  0  0  0  0
   14.0710    5.1670   -4.4190 Cl  0  0  0  0  0  0  0  0  0  0  0  0
   14.9590    2.8420   -3.3930 C   0  0  0  0  0  0  0  0  0  0  0  0
   15.1800   -0.3480   -1.6660 C   0  0  0  0  0  0  0  0  0  0  0  0
   13.2800   -2.3740   -0.7980 C   0  0  0  0  0  0  0  0  0  0  0  0
   12.4420   -2.2550   -1.6330 O   0  0  0  0  0  0  0  0  0  0  0  0
   11.6710   -2.4300    2.3220 H   0  0  0  0  0  0  0  0  0  0  0  0
   11.1580   -1.2000    1.0670 H   0  0  0  0  0  0  0  0  0  0  0  0
   11.0210   -3.0030    0.7230 H   0  0  0  0  0  0  0  0  0  0  0  0
   13.5670   -1.9890    3.3910 H   0  0  0  0  0  0  0  0  0  0  0  0
   16.1700   -2.7770    0.9010 H   0  0  0  0  0  0  0  0  0  0  0  0
   15.9980   -4.5160   -0.8250 H   0  0  0  0  0  0  0  0  0  0  0  0
   14.8940   -4.3850   -2.2600 H   0  0  0  0  0  0  0  0  0  0  0  0
   12.9360   -4.9700   -0.9770 H   0  0  0  0  0  0  0  0  0  0  0  0
   13.5180   -7.2270   -0.0190 H   0  0  0  0  0  0  0  0  0  0  0  0
   15.2850   -6.7670    0.0640 H   0  0  0  0  0  0  0  0  0  0  0  0
   14.6960   -4.8380    1.6500 H   0  0  0  0  0  0  0  0  0  0  0  0
   12.9400   -5.2790    1.5590 H   0  0  0  0  0  0  0  0  0  0  0  0
   16.6430   -3.1700   -2.9310 H   0  0  0  0  0  0  0  0  0  0  0  0
   17.5600   -1.4870   -4.5090 H   0  0  0  0  0  0  0  0  0  0  0  0
   16.9400    0.9010   -4.3110 H   0  0  0  0  0  0  0  0  0  0  0  0
   15.9610    1.9890   -0.2410 H   0  0  0  0  0  0  0  0  0  0  0  0
   15.3070    4.3360    0.2000 H   0  0  0  0  0  0  0  0  0  0  0  0
   14.3870    5.7480   -1.6520 H   0  0  0  0  0  0  0  0  0  0  0  0
   14.8590    2.4240   -4.4000 H   0  0  0  0  0  0  0  0  0  0  0  0
   14.5330   -0.0270   -0.8490 H   0  0  0  0  0  0  0  0  0  0  0  0
   15.2570   -2.3770    3.1590 H   0  0  0  0  0  0  0  0  0  0  0  0
  1  2  1  0  0  0  0
  1 26  1  0  0  0  0
  1 27  1  0  0  0  0
  1 28  1  0  0  0  0
  2  3  1  0  0  0  0
  2 24  1  0  0  0  0
  3  4  1  0  0  0  0
  3  5  2  0  0  0  0
  4 29  1  0  0  0  0
  4 46  1  0  0  0  0
  5  6  1  0  0  0  0
  5 30  1  0  0  0  0
  6  7  1  6  0  0  0
  6 11  1  0  0  0  0
  6 24  1  0  0  0  0
  7  8  1  0  0  0  0
  7 31  1  0  0  0  0
  7 32  1  0  0  0  0
  8  9  1  0  0  0  0
  8 10  1  0  0  0  0
  8 33  1  0  0  0  0
  9 10  1  0  0  0  0
  9 34  1  0  0  0  0
  9 35  1  0  0  0  0
 10 36  1  0  0  0  0
 10 37  1  0  0  0  0
 11 12  2  0  0  0  0
 11 23  1  0  0  0  0
 12 13  1  0  0  0  0
 12 38  1  0  0  0  0
 13 14  2  0  0  0  0
 13 39  1  0  0  0  0
 14 15  1  0  0  0  0
 14 40  1  0  0  0  0
 15 16  1  0  0  0  0
 15 23  2  0  0  0  0
 16 17  2  0  0  0  0
 16 22  1  0  0  0  0
 17 18  1  0  0  0  0
 17 41  1  0  0  0  0
 18 19  2  0  0  0  0
 18 42  1  0  0  0  0
 19 20  1  0  0  0  0
 19 43  1  0  0  0  0
 20 21  1  0  0  0  0
 20 22  2  0  0  0  0
 22 44  1  0  0  0  0
 23 45  1  0  0  0  0
 24 25  2  0  0  0  0
M  CHG  1   5   1
M  END
$$$$
