18631-1
                    3D
 Schrodinger Suite 2022-3.
 42 43  0  0  1  0  0  0  0  0999 V2000
   25.7560    4.5560   30.8570 C   0  0  0  0  0  0  0  0  0  0  0  0
   24.4910    4.8150   30.3300 C   0  0  0  0  0  0  0  0  0  0  0  0
   23.3790    3.9680   30.5890 C   0  0  0  0  0  0  0  0  0  0  0  0
   23.5960    2.8380   31.3810 C   0  0  0  0  0  0  0  0  0  0  0  0
   24.8610    2.5720   31.9230 C   0  0  0  0  0  0  0  0  0  0  0  0
   25.9330    3.4250   31.6640 C   0  0  0  0  0  0  0  0  0  0  0  0
   22.0290    4.2670   30.0090 C   0  0  0  0  0  0  0  0  0  0  0  0
   21.2210    5.2500   30.8440 C   0  0  0  0  0  0  0  0  0  0  0  0
   21.8050    6.5370   30.9120 N   0  0  0  0  0  0  0  0  0  0  0  0
   21.2510    7.6960   31.4960 C   0  0  0  0  0  0  0  0  0  0  0  0
   20.1510    4.9940   31.3530 O   0  0  0  0  0  0  0  0  0  0  0  0
   22.0010    8.8220   31.1900 N   0  0  0  0  0  0  0  0  0  0  0  0
   21.5460   10.0170   31.6270 C   0  0  0  0  0  0  0  0  0  0  0  0
   20.3650   10.1950   32.4080 C   0  0  0  0  0  0  0  0  0  0  0  0
   19.6340    9.0090   32.7400 C   0  0  0  0  0  0  0  0  0  0  0  0
   20.0940    7.7510   32.2670 C   0  0  0  0  0  0  0  0  0  0  0  0
   24.1810    5.8840   29.5040 O   0  0  0  0  0  0  0  0  0  0  0  0
   25.1670    6.9430   29.3570 C   0  0  0  0  0  0  0  0  0  0  0  0
   18.4860    9.0690   33.4880 N   0  0  0  0  0  0  0  0  0  0  0  0
   19.9720   11.5000   32.7720 C   0  0  0  0  0  0  0  0  0  0  0  0
   22.2150   11.1460   31.2970 O   0  0  0  0  0  0  0  0  0  0  0  0
   23.4900   11.0400   30.5590 C   0  0  0  0  0  0  0  0  0  0  0  0
   23.2360   10.8330   29.0810 C   0  0  0  0  0  0  0  0  0  0  0  0
   19.6970   12.5970   33.0320 N   0  0  0  0  0  0  0  0  0  0  0  0
   26.6100    5.2040   30.6530 H   0  0  0  0  0  0  0  0  0  0  0  0
   22.7780    2.1420   31.5890 H   0  0  0  0  0  0  0  0  0  0  0  0
   19.5250    6.8490   32.5000 H   0  0  0  0  0  0  0  0  0  0  0  0
   21.4430    3.3160   29.9150 H   0  0  0  0  0  0  0  0  0  0  0  0
   22.1590    4.7090   28.9840 H   0  0  0  0  0  0  0  0  0  0  0  0
   22.7230    6.6880   30.4220 H   0  0  0  0  0  0  0  0  0  0  0  0
   26.0330    6.5640   28.7750 H   0  0  0  0  0  0  0  0  0  0  0  0
   25.4710    7.3320   30.3530 H   0  0  0  0  0  0  0  0  0  0  0  0
   24.5900    7.7070   28.7870 H   0  0  0  0  0  0  0  0  0  0  0  0
   18.1050    9.9600   33.8070 H   0  0  0  0  0  0  0  0  0  0  0  0
   17.9850    8.2050   33.7700 H   0  0  0  0  0  0  0  0  0  0  0  0
   24.1110   10.2260   30.9980 H   0  0  0  0  0  0  0  0  0  0  0  0
   23.9090   12.0520   30.7770 H   0  0  0  0  0  0  0  0  0  0  0  0
   24.2090   10.8830   28.5310 H   0  0  0  0  0  0  0  0  0  0  0  0
   22.7770    9.8360   28.8840 H   0  0  0  0  0  0  0  0  0  0  0  0
   22.5660   11.6210   28.6700 H   0  0  0  0  0  0  0  0  0  0  0  0
   26.9210    3.2140   32.0850 H   0  0  0  0  0  0  0  0  0  0  0  0
   25.0090    1.6850   32.5460 H   0  0  0  0  0  0  0  0  0  0  0  0
  1  2  1  0  0  0  0
  1  6  2  0  0  0  0
  1 25  1  0  0  0  0
  2  3  2  0  0  0  0
  2 17  1  0  0  0  0
  3  4  1  0  0  0  0
  3  7  1  0  0  0  0
  4  5  2  0  0  0  0
  4 26  1  0  0  0  0
  5  6  1  0  0  0  0
  5 42  1  0  0  0  0
  6 41  1  0  0  0  0
  7  8  1  0  0  0  0
  7 28  1  0  0  0  0
  7 29  1  0  0  0  0
  8  9  1  0  0  0  0
  8 11  2  0  0  0  0
  9 10  1  0  0  0  0
  9 30  1  0  0  0  0
 10 12  1  0  0  0  0
 10 16  2  0  0  0  0
 12 13  2  0  0  0  0
 13 14  1  0  0  0  0
 13 21  1  0  0  0  0
 14 15  2  0  0  0  0
 14 20  1  0  0  0  0
 15 16  1  0  0  0  0
 15 19  1  0  0  0  0
 16 27  1  0  0  0  0
 17 18  1  0  0  0  0
 18 31  1  0  0  0  0
 18 32  1  0  0  0  0
 18 33  1  0  0  0  0
 19 34  1  0  0  0  0
 19 35  1  0  0  0  0
 20 24  3  0  0  0  0
 21 22  1  0  0  0  0
 22 23  1  0  0  0  0
 22 36  1  0  0  0  0
 22 37  1  0  0  0  0
 23 38  1  0  0  0  0
 23 39  1  0  0  0  0
 23 40  1  0  0  0  0
M  END
$$$$
