28
 OpenBabel02232411153D
Structure written by MMmdl.
 53 56  0  0  0  0  0  0  0  0999 V2000
    1.7210   28.9280    6.8110 C   0  0  0  0  0  0  0  0  0  0  0  0
   -1.7070   31.5540    8.0410 C   0  0  0  0  0  0  0  0  0  0  0  0
   -0.2490   26.0480    8.8930 C   0  0  0  0  0  0  0  0  0  0  0  0
   -0.9710   25.3330   10.0420 C   0  0  0  0  0  0  0  0  0  0  0  0
   -0.7430   23.8160    9.8440 C   0  0  0  0  0  0  0  0  0  0  0  0
   -1.3150   23.0040   11.0140 C   0  0  0  0  0  0  0  0  0  0  0  0
   -0.7560   23.4880   12.3610 C   0  0  0  0  0  0  0  0  0  0  0  0
   -1.0240   24.9880   12.5630 C   0  0  0  0  0  0  0  0  0  0  0  0
   -0.4400   25.8130   11.4070 C   0  0  0  0  0  0  0  0  0  0  0  0
    4.2300   25.4520    7.9790 C   0  0  0  0  0  0  0  0  0  0  0  0
    5.0880   24.9500    6.9910 C   0  0  0  0  0  0  0  0  0  0  0  0
    5.2760   25.6880    5.8160 C   0  0  0  0  0  0  0  0  0  0  0  0
    4.5720   26.8690    5.5990 C   0  0  0  0  0  0  0  0  0  0  0  0
    0.9980   27.9720    7.5150 N   0  0  0  0  0  0  0  0  0  0  0  0
   -0.1800   28.3100    8.1000 C   0  0  0  0  0  0  0  0  0  0  0  0
   -0.8540   27.4050    8.8240 O   0  0  0  0  0  0  0  0  0  0  0  0
   -0.6850   29.6290    7.9560 C   0  0  0  0  0  0  0  0  0  0  0  0
   -1.8180   30.2860    8.4470 N   0  0  0  0  0  0  0  0  0  0  0  0
   -0.5040   31.7800    7.2820 N   0  0  0  0  0  0  0  0  0  0  0  0
    0.1470   30.5540    7.2030 C   0  0  0  0  0  0  0  0  0  0  0  0
    1.3380   30.2370    6.5930 N   0  0  0  0  0  0  0  0  0  0  0  0
    2.9370   28.5200    6.2590 N   0  0  0  0  0  0  0  0  0  0  0  0
    3.6550   27.3300    6.5690 C   0  0  0  0  0  0  0  0  0  0  0  0
    3.5240   26.6350    7.7870 C   0  0  0  0  0  0  0  0  0  0  0  0
   -2.4000   32.3630    8.2530 H   0  0  0  0  0  0  0  0  0  0  0  0
    0.8400   26.1410    9.1000 H   0  0  0  0  0  0  0  0  0  0  0  0
   -0.4470   25.5830    7.9060 H   0  0  0  0  0  0  0  0  0  0  0  0
   -2.0660   25.5450    9.9990 H   0  0  0  0  0  0  0  0  0  0  0  0
   -1.2320   23.4890    8.9000 H   0  0  0  0  0  0  0  0  0  0  0  0
    0.3540   23.6120    9.7700 H   0  0  0  0  0  0  0  0  0  0  0  0
   -2.4210   23.1060   11.0270 H   0  0  0  0  0  0  0  0  0  0  0  0
   -1.0550   21.9280   10.8770 H   0  0  0  0  0  0  0  0  0  0  0  0
   -1.2280   22.9110   13.1880 H   0  0  0  0  0  0  0  0  0  0  0  0
    0.3440   23.3100   12.3780 H   0  0  0  0  0  0  0  0  0  0  0  0
   -2.1210   25.1630   12.6420 H   0  0  0  0  0  0  0  0  0  0  0  0
   -0.5480   25.3170   13.5150 H   0  0  0  0  0  0  0  0  0  0  0  0
    0.6730   25.7150   11.4350 H   0  0  0  0  0  0  0  0  0  0  0  0
   -0.7020   26.8860   11.5490 H   0  0  0  0  0  0  0  0  0  0  0  0
    4.0840   24.9240    8.9260 H   0  0  0  0  0  0  0  0  0  0  0  0
    5.9740   25.3540    5.0380 H   0  0  0  0  0  0  0  0  0  0  0  0
    4.7260   27.4280    4.6750 H   0  0  0  0  0  0  0  0  0  0  0  0
   -0.2290   32.6560    6.8150 H   0  0  0  0  0  0  0  0  0  0  0  0
    3.4340   29.1690    5.6030 H   0  0  0  0  0  0  0  0  0  0  0  0
    2.8660   26.9950    8.5780 H   0  0  0  0  0  0  0  0  0  0  0  0
    5.9110   23.4490    7.2020 S   0  0  0  0  0  0  0  0  0  0  0  0
    5.9500   22.7140    5.9280 O   0  0  0  0  0  0  0  0  0  0  0  0
    7.2320   23.7160    7.7840 O   0  0  0  0  0  0  0  0  0  0  0  0
    5.0240   22.5010    8.3010 N   0  0  0  0  0  0  0  0  0  0  0  0
    5.0760   22.8060    9.3180 H   0  0  0  0  0  0  0  0  0  0  0  0
    3.6470   22.0740    7.9620 C   0  0  0  0  0  0  0  0  0  0  0  0
    3.3820   21.2050    8.6240 H   0  0  0  0  0  0  0  0  0  0  0  0
    2.8920   22.8850    8.1400 H   0  0  0  0  0  0  0  0  0  0  0  0
    3.5800   21.7260    6.9020 H   0  0  0  0  0  0  0  0  0  0  0  0
  1 14  2  0  0  0  0
  1 21  1  0  0  0  0
  1 22  1  0  0  0  0
  2 18  2  0  0  0  0
  2 19  1  0  0  0  0
  2 25  1  0  0  0  0
  3  4  1  0  0  0  0
  3 16  1  0  0  0  0
  3 26  1  0  0  0  0
  3 27  1  0  0  0  0
  4  5  1  0  0  0  0
  4  9  1  0  0  0  0
  4 28  1  0  0  0  0
  5  6  1  0  0  0  0
  5 29  1  0  0  0  0
  5 30  1  0  0  0  0
  6  7  1  0  0  0  0
  6 31  1  0  0  0  0
  6 32  1  0  0  0  0
  7  8  1  0  0  0  0
  7 33  1  0  0  0  0
  7 34  1  0  0  0  0
  8  9  1  0  0  0  0
  8 35  1  0  0  0  0
  8 36  1  0  0  0  0
  9 37  1  0  0  0  0
  9 38  1  0  0  0  0
 10 11  2  0  0  0  0
 10 24  1  0  0  0  0
 10 39  1  0  0  0  0
 11 12  1  0  0  0  0
 11 45  1  0  0  0  0
 12 13  2  0  0  0  0
 12 40  1  0  0  0  0
 13 23  1  0  0  0  0
 13 41  1  0  0  0  0
 14 15  1  0  0  0  0
 15 16  1  0  0  0  0
 15 17  2  0  0  0  0
 17 18  1  0  0  0  0
 17 20  1  0  0  0  0
 19 20  1  0  0  0  0
 19 42  1  0  0  0  0
 20 21  2  0  0  0  0
 22 23  1  0  0  0  0
 22 43  1  0  0  0  0
 23 24  2  0  0  0  0
 24 44  1  0  0  0  0
 45 46  2  0  0  0  0
 45 47  2  0  0  0  0
 45 48  1  0  0  0  0
 48 49  1  0  0  0  0
 48 50  1  0  0  0  0
 50 51  1  0  0  0  0
 50 52  1  0  0  0  0
 50 53  1  0  0  0  0
M  END
$$$$
