CAT-13i
 OpenBabel02232411143D
Structure written by MMmdl.
 46 49  0  0  1  0  0  0  0  0999 V2000
   11.7610   -1.8670    1.1700 C   0  0  0  0  0  0  0  0  0  0  0  0
   13.0640   -2.2450    0.5920 N   0  0  0  0  0  0  0  0  0  0  0  0
   14.2390   -2.3370    1.3470 C   0  0  0  0  0  0  0  0  0  0  0  0
   14.3440   -2.3050    2.7000 N   0  0  0  0  0  0  0  0  0  0  0  0
   15.3270   -2.5550    0.5040 N   0  3  0  0  0  0  0  0  0  0  0  0
   14.8530   -2.9020   -0.8860 C   0  0  2  0  0  0  0  0  0  0  0  0
   15.1380   -4.3710   -1.2110 C   0  0  0  0  0  0  0  0  0  0  0  0
   14.6390   -5.4900   -0.3120 C   0  0  0  0  0  0  0  0  0  0  0  0
   13.7420   -5.4400    0.9180 C   0  0  0  0  0  0  0  0  0  0  0  0
   13.2100   -6.0180   -0.3720 C   0  0  0  0  0  0  0  0  0  0  0  0
   15.4200   -1.8750   -1.8630 C   0  0  0  0  0  0  0  0  0  0  0  0
   16.1100   -2.2480   -3.0210 C   0  0  0  0  0  0  0  0  0  0  0  0
   16.5530   -1.2610   -3.9110 C   0  0  0  0  0  0  0  0  0  0  0  0
   16.3190    0.0900   -3.6570 C   0  0  0  0  0  0  0  0  0  0  0  0
   15.6470    0.4790   -2.4850 C   0  0  0  0  0  0  0  0  0  0  0  0
   15.4110    1.9100   -2.1880 C   0  0  0  0  0  0  0  0  0  0  0  0
   15.6370    2.4030   -0.8920 C   0  0  0  0  0  0  0  0  0  0  0  0
   15.3620    3.7370   -0.5790 C   0  0  0  0  0  0  0  0  0  0  0  0
   14.8770    4.6050   -1.5600 C   0  0  0  0  0  0  0  0  0  0  0  0
   14.7010    4.1150   -2.8580 C   0  0  0  0  0  0  0  0  0  0  0  0
   14.1550    5.1920   -4.0810 Cl  0  0  0  0  0  0  0  0  0  0  0  0
   14.9500    2.7810   -3.1890 C   0  0  0  0  0  0  0  0  0  0  0  0
   15.1990   -0.5110   -1.5990 C   0  0  0  0  0  0  0  0  0  0  0  0
   13.3150   -2.6420   -0.8020 C   0  0  0  0  0  0  0  0  0  0  0  0
   12.4530   -2.6820   -1.6200 O   0  0  0  0  0  0  0  0  0  0  0  0
   11.6470   -2.2990    2.2000 H   0  0  0  0  0  0  0  0  0  0  0  0
   11.7050   -0.7480    1.2190 H   0  0  0  0  0  0  0  0  0  0  0  0
   10.9340   -2.2640    0.5220 H   0  0  0  0  0  0  0  0  0  0  0  0
   13.6100   -1.8900    3.3200 H   0  0  0  0  0  0  0  0  0  0  0  0
   16.2160   -2.9580    0.8970 H   0  0  0  0  0  0  0  0  0  0  0  0
   16.2590   -4.4730   -1.2650 H   0  0  0  0  0  0  0  0  0  0  0  0
   14.7130   -4.5800   -2.2320 H   0  0  0  0  0  0  0  0  0  0  0  0
   15.4300   -6.2620   -0.2540 H   0  0  0  0  0  0  0  0  0  0  0  0
   13.9880   -6.1300    1.7400 H   0  0  0  0  0  0  0  0  0  0  0  0
   13.3110   -4.5250    1.3110 H   0  0  0  0  0  0  0  0  0  0  0  0
   12.4620   -5.4520   -0.9370 H   0  0  0  0  0  0  0  0  0  0  0  0
   13.0560   -7.1040   -0.4370 H   0  0  0  0  0  0  0  0  0  0  0  0
   16.3100   -3.2950   -3.2470 H   0  0  0  0  0  0  0  0  0  0  0  0
   17.0960   -1.5500   -4.8150 H   0  0  0  0  0  0  0  0  0  0  0  0
   16.6680    0.8410   -4.3740 H   0  0  0  0  0  0  0  0  0  0  0  0
   16.0160    1.7340   -0.1190 H   0  0  0  0  0  0  0  0  0  0  0  0
   15.5210    4.0920    0.4440 H   0  0  0  0  0  0  0  0  0  0  0  0
   14.6260    5.6380   -1.3080 H   0  0  0  0  0  0  0  0  0  0  0  0
   14.7800    2.4160   -4.2080 H   0  0  0  0  0  0  0  0  0  0  0  0
   14.6780   -0.2200   -0.6870 H   0  0  0  0  0  0  0  0  0  0  0  0
   15.3010   -2.3260    3.1450 H   0  0  0  0  0  0  0  0  0  0  0  0
  1  2  1  0  0  0  0
  1 26  1  0  0  0  0
  1 27  1  0  0  0  0
  1 28  1  0  0  0  0
  2  3  1  0  0  0  0
  2 24  1  0  0  0  0
  3  4  1  0  0  0  0
  3  5  2  0  0  0  0
  4 29  1  0  0  0  0
  4 46  1  0  0  0  0
  5  6  1  0  0  0  0
  5 30  1  0  0  0  0
  6  7  1  6  0  0  0
  6 11  1  0  0  0  0
  6 24  1  0  0  0  0
  7  8  1  0  0  0  0
  7 31  1  0  0  0  0
  7 32  1  0  0  0  0
  8  9  1  0  0  0  0
  8 10  1  0  0  0  0
  8 33  1  0  0  0  0
  9 10  1  0  0  0  0
  9 34  1  0  0  0  0
  9 35  1  0  0  0  0
 10 36  1  0  0  0  0
 10 37  1  0  0  0  0
 11 12  2  0  0  0  0
 11 23  1  0  0  0  0
 12 13  1  0  0  0  0
 12 38  1  0  0  0  0
 13 14  2  0  0  0  0
 13 39  1  0  0  0  0
 14 15  1  0  0  0  0
 14 40  1  0  0  0  0
 15 16  1  0  0  0  0
 15 23  2  0  0  0  0
 16 17  2  0  0  0  0
 16 22  1  0  0  0  0
 17 18  1  0  0  0  0
 17 41  1  0  0  0  0
 18 19  2  0  0  0  0
 18 42  1  0  0  0  0
 19 20  1  0  0  0  0
 19 43  1  0  0  0  0
 20 21  1  0  0  0  0
 20 22  2  0  0  0  0
 22 44  1  0  0  0  0
 23 45  1  0  0  0  0
 24 25  2  0  0  0  0
M  CHG  1   5   1
M  END
$$$$
