p38a_2p
 OpenBabel02232411163D
Structure written by MMmdl.
 58 61  0  0  0  0  0  0  0  0999 V2000
   36.3660   35.9800   15.8550 C   0  0  0  0  0  0  0  0  0  0  0  0
   34.3180   34.8440   21.2920 C   0  0  0  0  0  0  0  0  0  0  0  0
   35.6490   35.4920   16.9430 C   0  0  0  0  0  0  0  0  0  0  0  0
   33.7530   38.9120   23.8540 C   0  0  0  0  0  0  0  0  0  0  0  0
   34.5330   37.7070   21.5030 C   0  0  0  0  0  0  0  0  0  0  0  0
   35.0310   37.0490   20.3270 C   0  0  0  0  0  0  0  0  0  0  0  0
   37.6550   36.4610   16.1210 C   0  0  0  0  0  0  0  0  0  0  0  0
   38.2390   36.4400   17.3920 C   0  0  0  0  0  0  0  0  0  0  0  0
   37.4850   35.9760   18.4750 C   0  0  0  0  0  0  0  0  0  0  0  0
   33.9980   36.9430   22.5830 C   0  0  0  0  0  0  0  0  0  0  0  0
   34.5790   39.1200   21.6700 C   0  0  0  0  0  0  0  0  0  0  0  0
   34.9570   35.7010   20.2560 C   0  0  0  0  0  0  0  0  0  0  0  0
   36.1900   35.5010   18.2450 C   0  0  0  0  0  0  0  0  0  0  0  0
   34.4340   34.9880   16.7770 F   0  0  0  0  0  0  0  0  0  0  0  0
   35.4120   34.8760   19.2290 O   0  0  0  0  0  0  0  0  0  0  0  0
   34.2030   39.7340   22.8000 N   0  0  0  0  0  0  0  0  0  0  0  0
   34.1780   33.6440   21.2060 O   0  0  0  0  0  0  0  0  0  0  0  0
   33.8600   35.5440   22.4640 N   0  0  0  0  0  0  0  0  0  0  0  0
   33.6280   37.5390   23.7610 N   0  0  0  0  0  0  0  0  0  0  0  0
   33.3620   39.5370   25.0170 N   0  0  0  0  0  0  0  0  0  0  0  0
   35.9380   36.0110   14.8500 H   0  0  0  0  0  0  0  0  0  0  0  0
   35.4720   37.6670   19.5390 H   0  0  0  0  0  0  0  0  0  0  0  0
   39.2580   36.8070   17.5430 H   0  0  0  0  0  0  0  0  0  0  0  0
   37.9000   36.0110   19.4850 H   0  0  0  0  0  0  0  0  0  0  0  0
   34.9450   39.7590   20.8460 H   0  0  0  0  0  0  0  0  0  0  0  0
   33.5360   40.5580   25.1200 H   0  0  0  0  0  0  0  0  0  0  0  0
   38.3400   36.9990   15.1150 F   0  0  0  0  0  0  0  0  0  0  0  0
   32.0790   38.8910   28.5550 C   0  0  0  0  0  0  0  0  0  0  0  0
   32.1660   39.5380   27.1680 C   0  0  0  0  0  0  0  0  0  0  0  0
   33.1950   38.7840   26.2990 C   0  0  0  0  0  0  0  0  0  0  0  0
   34.5500   38.6740   27.0330 C   0  0  0  0  0  0  0  0  0  0  0  0
   34.3460   38.0790   28.4320 C   0  0  0  0  0  0  0  0  0  0  0  0
   33.3740   38.8290   29.1950 O   0  0  0  0  0  0  0  0  0  0  0  0
   31.6560   37.8610   28.4860 H   0  0  0  0  0  0  0  0  0  0  0  0
   31.4950   39.5260   29.2610 H   0  0  0  0  0  0  0  0  0  0  0  0
   32.4690   40.6070   27.2690 H   0  0  0  0  0  0  0  0  0  0  0  0
   31.1670   39.4980   26.6710 H   0  0  0  0  0  0  0  0  0  0  0  0
   32.8040   37.7530   26.0680 H   0  0  0  0  0  0  0  0  0  0  0  0
   35.2390   38.0130   26.4540 H   0  0  0  0  0  0  0  0  0  0  0  0
   35.0200   39.6830   27.1140 H   0  0  0  0  0  0  0  0  0  0  0  0
   34.0130   37.0170   28.3640 H   0  0  0  0  0  0  0  0  0  0  0  0
   35.2670   38.1810   29.0510 H   0  0  0  0  0  0  0  0  0  0  0  0
   33.2470   34.7530   23.5850 C   0  0  0  0  0  0  0  0  0  0  0  0
   33.6790   33.7180   23.5580 H   0  0  0  0  0  0  0  0  0  0  0  0
   33.5330   35.2360   24.5620 H   0  0  0  0  0  0  0  0  0  0  0  0
   31.7060   34.6980   23.4660 C   0  0  0  0  0  0  0  0  0  0  0  0
   31.3410   35.7480   23.2980 H   0  0  0  0  0  0  0  0  0  0  0  0
   31.4120   34.0950   22.5770 H   0  0  0  0  0  0  0  0  0  0  0  0
   31.0340   34.1910   24.7500 C   0  0  0  0  0  0  0  0  0  0  0  0
   30.1300   34.8510   24.9160 H   0  0  0  0  0  0  0  0  0  0  0  0
   31.7150   34.4300   25.6170 H   0  0  0  0  0  0  0  0  0  0  0  0
   30.5190   32.5120   24.8530 S   0  0  0  0  0  0  0  0  0  0  0  0
   29.0750   32.3850   24.5330 O   0  0  0  0  0  0  0  0  0  0  0  0
   30.7780   32.0140   26.2290 O   0  0  0  0  0  0  0  0  0  0  0  0
   31.4500   31.5710   23.7320 C   0  0  0  0  0  0  0  0  0  0  0  0
   32.5500   31.6400   23.9320 H   0  0  0  0  0  0  0  0  0  0  0  0
   31.1870   30.4800   23.7960 H   0  0  0  0  0  0  0  0  0  0  0  0
   31.2750   31.8630   22.6640 H   0  0  0  0  0  0  0  0  0  0  0  0
  1  3  2  0  0  0  0
  1  7  1  0  0  0  0
  1 21  1  0  0  0  0
  2 12  1  0  0  0  0
  2 17  2  0  0  0  0
  2 18  1  0  0  0  0
  3 13  1  0  0  0  0
  3 14  1  0  0  0  0
  4 16  2  0  0  0  0
  4 19  1  0  0  0  0
  4 20  1  0  0  0  0
  5  6  1  0  0  0  0
  5 10  1  0  0  0  0
  5 11  2  0  0  0  0
  6 12  2  0  0  0  0
  6 22  1  0  0  0  0
  7  8  2  0  0  0  0
  7 27  1  0  0  0  0
  8  9  1  0  0  0  0
  8 23  1  0  0  0  0
  9 13  2  0  0  0  0
  9 24  1  0  0  0  0
 10 18  1  0  0  0  0
 10 19  2  0  0  0  0
 11 16  1  0  0  0  0
 11 25  1  0  0  0  0
 12 15  1  0  0  0  0
 13 15  1  0  0  0  0
 18 43  1  0  0  0  0
 20 26  1  0  0  0  0
 20 30  1  0  0  0  0
 28 29  1  0  0  0  0
 28 33  1  0  0  0  0
 28 34  1  0  0  0  0
 28 35  1  0  0  0  0
 29 30  1  0  0  0  0
 29 36  1  0  0  0  0
 29 37  1  0  0  0  0
 30 31  1  0  0  0  0
 30 38  1  0  0  0  0
 31 32  1  0  0  0  0
 31 39  1  0  0  0  0
 31 40  1  0  0  0  0
 32 33  1  0  0  0  0
 32 41  1  0  0  0  0
 32 42  1  0  0  0  0
 43 44  1  0  0  0  0
 43 45  1  0  0  0  0
 43 46  1  0  0  0  0
 46 47  1  0  0  0  0
 46 48  1  0  0  0  0
 46 49  1  0  0  0  0
 49 50  1  0  0  0  0
 49 51  1  0  0  0  0
 49 52  1  0  0  0  0
 52 53  2  0  0  0  0
 52 54  2  0  0  0  0
 52 55  1  0  0  0  0
 55 56  1  0  0  0  0
 55 57  1  0  0  0  0
 55 58  1  0  0  0  0
M  END
$$$$
