CAT-17d
 OpenBabel02232411143D
Structure written by MMmdl.
 42 45  0  0  1  0  0  0  0  0999 V2000
   11.6250   -2.3700    1.2550 C   0  0  0  0  0  0  0  0  0  0  0  0
   12.9740   -2.2950    0.6560 N   0  0  0  0  0  0  0  0  0  0  0  0
   14.1600   -2.3140    1.3810 C   0  0  0  0  0  0  0  0  0  0  0  0
   14.3030   -2.4540    2.7290 N   0  0  0  0  0  0  0  0  0  0  0  0
   15.2560   -2.2160    0.5070 N   0  3  0  0  0  0  0  0  0  0  0  0
   14.8110   -2.5350   -0.9010 C   0  0  1  0  0  0  0  0  0  0  0  0
   15.4010   -1.5210   -1.8580 C   0  0  0  0  0  0  0  0  0  0  0  0
   16.2990   -1.9170   -2.8570 C   0  0  0  0  0  0  0  0  0  0  0  0
   16.7520   -0.9760   -3.7880 C   0  0  0  0  0  0  0  0  0  0  0  0
   16.3310    0.3530   -3.7170 C   0  0  0  0  0  0  0  0  0  0  0  0
   15.4770    0.7690   -2.6800 C   0  0  0  0  0  0  0  0  0  0  0  0
   15.0590    2.1790   -2.5670 C   0  0  0  0  0  0  0  0  0  0  0  0
   14.5170    2.8690   -3.6640 C   0  0  0  0  0  0  0  0  0  0  0  0
   14.0790    4.1830   -3.4920 C   0  0  0  0  0  0  0  0  0  0  0  0
   14.1930    4.7800   -2.2250 C   0  0  0  0  0  0  0  0  0  0  0  0
   14.7560    4.1400   -1.1660 N   0  0  0  0  0  0  0  0  0  0  0  0
   15.1810    2.8640   -1.3370 C   0  0  0  0  0  0  0  0  0  0  0  0
   15.0120   -0.1770   -1.7530 C   0  0  0  0  0  0  0  0  0  0  0  0
   15.0330   -3.9940   -1.2770 C   0  0  0  0  0  0  0  0  0  0  0  0
   16.2650   -4.7440   -0.8030 C   0  0  0  0  0  0  0  0  0  0  0  0
   14.9090   -5.1020   -0.2380 C   0  0  0  0  0  0  0  0  0  0  0  0
   13.2580   -2.3660   -0.7960 C   0  0  0  0  0  0  0  0  0  0  0  0
   12.3960   -2.3000   -1.6100 O   0  0  0  0  0  0  0  0  0  0  0  0
   11.1010   -1.3880    1.1100 H   0  0  0  0  0  0  0  0  0  0  0  0
   11.0430   -3.1910    0.7530 H   0  0  0  0  0  0  0  0  0  0  0  0
   11.6830   -2.6020    2.3500 H   0  0  0  0  0  0  0  0  0  0  0  0
   13.5860   -2.0820    3.4000 H   0  0  0  0  0  0  0  0  0  0  0  0
   16.1840   -2.5780    0.8640 H   0  0  0  0  0  0  0  0  0  0  0  0
   16.6460   -2.9500   -2.9130 H   0  0  0  0  0  0  0  0  0  0  0  0
   17.4440   -1.2880   -4.5770 H   0  0  0  0  0  0  0  0  0  0  0  0
   16.6730    1.0660   -4.4740 H   0  0  0  0  0  0  0  0  0  0  0  0
   14.4280    2.3790   -4.6400 H   0  0  0  0  0  0  0  0  0  0  0  0
   13.6440    4.7370   -4.3310 H   0  0  0  0  0  0  0  0  0  0  0  0
   13.8120    5.7980   -2.0440 H   0  0  0  0  0  0  0  0  0  0  0  0
   15.6330    2.3670   -0.4650 H   0  0  0  0  0  0  0  0  0  0  0  0
   14.3490    0.1290   -0.9440 H   0  0  0  0  0  0  0  0  0  0  0  0
   14.6650   -4.2140   -2.2960 H   0  0  0  0  0  0  0  0  0  0  0  0
   16.9920   -4.2320   -0.1690 H   0  0  0  0  0  0  0  0  0  0  0  0
   16.7720   -5.4110   -1.5000 H   0  0  0  0  0  0  0  0  0  0  0  0
   14.6890   -4.8480    0.8060 H   0  0  0  0  0  0  0  0  0  0  0  0
   14.4230   -6.0400   -0.5390 H   0  0  0  0  0  0  0  0  0  0  0  0
   15.2820   -2.3960    3.1330 H   0  0  0  0  0  0  0  0  0  0  0  0
  1  2  1  0  0  0  0
  1 24  1  0  0  0  0
  1 25  1  0  0  0  0
  1 26  1  0  0  0  0
  2  3  1  0  0  0  0
  2 22  1  0  0  0  0
  3  4  1  0  0  0  0
  3  5  2  0  0  0  0
  4 27  1  0  0  0  0
  4 42  1  0  0  0  0
  5  6  1  0  0  0  0
  5 28  1  0  0  0  0
  6  7  1  6  0  0  0
  6 19  1  0  0  0  0
  6 22  1  0  0  0  0
  7  8  2  0  0  0  0
  7 18  1  0  0  0  0
  8  9  1  0  0  0  0
  8 29  1  0  0  0  0
  9 10  2  0  0  0  0
  9 30  1  0  0  0  0
 10 11  1  0  0  0  0
 10 31  1  0  0  0  0
 11 12  1  0  0  0  0
 11 18  2  0  0  0  0
 12 13  2  0  0  0  0
 12 17  1  0  0  0  0
 13 14  1  0  0  0  0
 13 32  1  0  0  0  0
 14 15  2  0  0  0  0
 14 33  1  0  0  0  0
 15 16  1  0  0  0  0
 15 34  1  0  0  0  0
 16 17  2  0  0  0  0
 17 35  1  0  0  0  0
 18 36  1  0  0  0  0
 19 20  1  0  0  0  0
 19 21  1  0  0  0  0
 19 37  1  0  0  0  0
 20 21  1  0  0  0  0
 20 38  1  0  0  0  0
 20 39  1  0  0  0  0
 21 40  1  0  0  0  0
 21 41  1  0  0  0  0
 22 23  2  0  0  0  0
M  CHG  1   5   1
M  END
$$$$
