p38a_2o
 OpenBabel02232411163D
Structure written by MMmdl.
 55 58  0  0  0  0  0  0  0  0999 V2000
   38.3030   36.5200   17.2070 C   0  0  0  0  0  0  0  0  0  0  0  0
   34.2570   35.0870   21.1490 C   0  0  0  0  0  0  0  0  0  0  0  0
   37.5410   36.0640   18.2790 C   0  0  0  0  0  0  0  0  0  0  0  0
   33.8120   39.1330   23.7580 C   0  0  0  0  0  0  0  0  0  0  0  0
   34.6150   37.9390   21.4080 C   0  0  0  0  0  0  0  0  0  0  0  0
   35.1390   37.2650   20.2510 C   0  0  0  0  0  0  0  0  0  0  0  0
   37.6390   36.6480   15.9800 C   0  0  0  0  0  0  0  0  0  0  0  0
   36.2940   36.3180   15.7940 C   0  0  0  0  0  0  0  0  0  0  0  0
   35.5540   35.8500   16.8840 C   0  0  0  0  0  0  0  0  0  0  0  0
   33.9290   37.2000   22.4140 C   0  0  0  0  0  0  0  0  0  0  0  0
   34.7550   39.3360   21.6240 C   0  0  0  0  0  0  0  0  0  0  0  0
   35.0030   35.9220   20.1650 C   0  0  0  0  0  0  0  0  0  0  0  0
   36.1850   35.7100   18.1240 C   0  0  0  0  0  0  0  0  0  0  0  0
   38.0900   35.9580   19.4820 F   0  0  0  0  0  0  0  0  0  0  0  0
   35.4960   35.0800   19.1710 O   0  0  0  0  0  0  0  0  0  0  0  0
   34.3770   39.9470   22.7570 N   0  0  0  0  0  0  0  0  0  0  0  0
   34.1290   33.8850   21.0940 O   0  0  0  0  0  0  0  0  0  0  0  0
   33.6470   35.8320   22.2250 N   0  0  0  0  0  0  0  0  0  0  0  0
   33.5410   37.7870   23.5890 N   0  0  0  0  0  0  0  0  0  0  0  0
   33.4940   39.7150   24.9620 N   0  0  0  0  0  0  0  0  0  0  0  0
   39.3530   36.8030   17.3270 H   0  0  0  0  0  0  0  0  0  0  0  0
   35.6420   37.8660   19.4900 H   0  0  0  0  0  0  0  0  0  0  0  0
   35.8110   36.4370   14.8210 H   0  0  0  0  0  0  0  0  0  0  0  0
   34.4920   35.6140   16.7610 H   0  0  0  0  0  0  0  0  0  0  0  0
   35.1940   39.9650   20.8340 H   0  0  0  0  0  0  0  0  0  0  0  0
   33.6940   40.7180   25.1270 H   0  0  0  0  0  0  0  0  0  0  0  0
   38.3160   37.1500   14.9490 F   0  0  0  0  0  0  0  0  0  0  0  0
   33.1710   40.5530   28.0930 C   0  0  0  0  0  0  0  0  0  0  0  0
   32.2730   39.7700   27.1260 C   0  0  0  0  0  0  0  0  0  0  0  0
   33.0480   38.8870   26.1280 C   0  0  0  0  0  0  0  0  0  0  0  0
   34.2400   38.1740   26.8040 C   0  0  0  0  0  0  0  0  0  0  0  0
   35.0510   39.1160   27.6940 C   0  0  0  0  0  0  0  0  0  0  0  0
   34.2010   39.7370   28.6870 O   0  0  0  0  0  0  0  0  0  0  0  0
   32.5910   40.8950   28.9810 H   0  0  0  0  0  0  0  0  0  0  0  0
   33.6570   41.4080   27.5740 H   0  0  0  0  0  0  0  0  0  0  0  0
   31.6390   40.4930   26.5570 H   0  0  0  0  0  0  0  0  0  0  0  0
   31.5940   39.0970   27.7060 H   0  0  0  0  0  0  0  0  0  0  0  0
   32.3360   38.1060   25.7290 H   0  0  0  0  0  0  0  0  0  0  0  0
   33.8220   37.3370   27.4200 H   0  0  0  0  0  0  0  0  0  0  0  0
   34.9060   37.7250   26.0280 H   0  0  0  0  0  0  0  0  0  0  0  0
   35.7800   38.5580   28.3240 H   0  0  0  0  0  0  0  0  0  0  0  0
   35.5440   39.9120   27.0910 H   0  0  0  0  0  0  0  0  0  0  0  0
   32.6080   35.1720   23.0910 C   0  0  0  0  0  0  0  0  0  0  0  0
   31.8070   35.9450   23.2850 H   0  0  0  0  0  0  0  0  0  0  0  0
   32.1710   34.3240   22.4900 H   0  0  0  0  0  0  0  0  0  0  0  0
   33.1580   34.6600   24.4220 C   0  0  0  0  0  0  0  0  0  0  0  0
   34.0190   33.9640   24.2430 H   0  0  0  0  0  0  0  0  0  0  0  0
   33.5860   35.5350   24.9930 H   0  0  0  0  0  0  0  0  0  0  0  0
   31.9310   33.8550   25.4150 S   0  0  0  0  0  0  0  0  0  0  0  0
   32.5480   33.3770   26.6750 O   0  0  0  0  0  0  0  0  0  0  0  0
   31.3470   32.7200   24.6640 O   0  0  0  0  0  0  0  0  0  0  0  0
   30.7180   35.0540   25.7290 C   0  0  0  0  0  0  0  0  0  0  0  0
   30.0420   35.2410   24.8530 H   0  0  0  0  0  0  0  0  0  0  0  0
   30.0400   34.7780   26.5830 H   0  0  0  0  0  0  0  0  0  0  0  0
   31.1530   36.0480   26.0140 H   0  0  0  0  0  0  0  0  0  0  0  0
  1  3  2  0  0  0  0
  1  7  1  0  0  0  0
  1 21  1  0  0  0  0
  2 12  1  0  0  0  0
  2 17  2  0  0  0  0
  2 18  1  0  0  0  0
  3 13  1  0  0  0  0
  3 14  1  0  0  0  0
  4 16  2  0  0  0  0
  4 19  1  0  0  0  0
  4 20  1  0  0  0  0
  5  6  1  0  0  0  0
  5 10  1  0  0  0  0
  5 11  2  0  0  0  0
  6 12  2  0  0  0  0
  6 22  1  0  0  0  0
  7  8  2  0  0  0  0
  7 27  1  0  0  0  0
  8  9  1  0  0  0  0
  8 23  1  0  0  0  0
  9 13  2  0  0  0  0
  9 24  1  0  0  0  0
 10 18  1  0  0  0  0
 10 19  2  0  0  0  0
 11 16  1  0  0  0  0
 11 25  1  0  0  0  0
 12 15  1  0  0  0  0
 13 15  1  0  0  0  0
 18 43  1  0  0  0  0
 20 26  1  0  0  0  0
 20 30  1  0  0  0  0
 28 29  1  0  0  0  0
 28 33  1  0  0  0  0
 28 34  1  0  0  0  0
 28 35  1  0  0  0  0
 29 30  1  0  0  0  0
 29 36  1  0  0  0  0
 29 37  1  0  0  0  0
 30 31  1  0  0  0  0
 30 38  1  0  0  0  0
 31 32  1  0  0  0  0
 31 39  1  0  0  0  0
 31 40  1  0  0  0  0
 32 33  1  0  0  0  0
 32 41  1  0  0  0  0
 32 42  1  0  0  0  0
 43 44  1  0  0  0  0
 43 45  1  0  0  0  0
 43 46  1  0  0  0  0
 46 47  1  0  0  0  0
 46 48  1  0  0  0  0
 46 49  1  0  0  0  0
 49 50  2  0  0  0  0
 49 51  2  0  0  0  0
 49 52  1  0  0  0  0
 52 53  1  0  0  0  0
 52 54  1  0  0  0  0
 52 55  1  0  0  0  0
M  END
$$$$
