29
 OpenBabel02232411153D
Structure written by MMmdl.
 56 59  0  0  0  0  0  0  0  0999 V2000
    2.0240   28.8030    6.7280 C   0  0  0  0  0  0  0  0  0  0  0  0
   -1.4560   31.3920    7.9050 C   0  0  0  0  0  0  0  0  0  0  0  0
    0.1810   25.9930    9.0140 C   0  0  0  0  0  0  0  0  0  0  0  0
   -0.7130   25.2630   10.0230 C   0  0  0  0  0  0  0  0  0  0  0  0
   -0.6220   23.7480    9.7380 C   0  0  0  0  0  0  0  0  0  0  0  0
   -1.4170   22.9420   10.7730 C   0  0  0  0  0  0  0  0  0  0  0  0
   -0.9800   23.2680   12.2100 C   0  0  0  0  0  0  0  0  0  0  0  0
   -1.0830   24.7750   12.4940 C   0  0  0  0  0  0  0  0  0  0  0  0
   -0.2860   25.5920   11.4670 C   0  0  0  0  0  0  0  0  0  0  0  0
    5.6750   25.8240    5.2230 C   0  0  0  0  0  0  0  0  0  0  0  0
    5.5990   24.9150    6.2850 C   0  0  0  0  0  0  0  0  0  0  0  0
    4.7050   25.1810    7.3340 C   0  0  0  0  0  0  0  0  0  0  0  0
    3.8980   26.3220    7.3310 C   0  0  0  0  0  0  0  0  0  0  0  0
    1.3510   27.8620    7.4960 N   0  0  0  0  0  0  0  0  0  0  0  0
    0.1520   28.1920    8.0510 C   0  0  0  0  0  0  0  0  0  0  0  0
   -0.4990   27.3020    8.8110 O   0  0  0  0  0  0  0  0  0  0  0  0
   -0.3970   29.4860    7.8500 C   0  0  0  0  0  0  0  0  0  0  0  0
   -1.5490   30.1270    8.3220 N   0  0  0  0  0  0  0  0  0  0  0  0
   -0.2490   31.6330    7.1570 N   0  0  0  0  0  0  0  0  0  0  0  0
    0.4200   30.4160    7.0880 C   0  0  0  0  0  0  0  0  0  0  0  0
    1.6130   30.1020    6.4850 N   0  0  0  0  0  0  0  0  0  0  0  0
    3.2190   28.4200    6.1160 N   0  0  0  0  0  0  0  0  0  0  0  0
    3.9620   27.2160    6.2490 C   0  0  0  0  0  0  0  0  0  0  0  0
    4.8750   26.9560    5.1970 C   0  0  0  0  0  0  0  0  0  0  0  0
   -2.1650   32.1930    8.0910 H   0  0  0  0  0  0  0  0  0  0  0  0
    1.2000   26.1900    9.4140 H   0  0  0  0  0  0  0  0  0  0  0  0
    0.2090   25.4970    8.0230 H   0  0  0  0  0  0  0  0  0  0  0  0
   -1.7710   25.5980    9.8860 H   0  0  0  0  0  0  0  0  0  0  0  0
   -1.0260   23.5390    8.7220 H   0  0  0  0  0  0  0  0  0  0  0  0
    0.4490   23.4290    9.7740 H   0  0  0  0  0  0  0  0  0  0  0  0
   -2.4980   23.1830   10.6640 H   0  0  0  0  0  0  0  0  0  0  0  0
   -1.2690   21.8520   10.5900 H   0  0  0  0  0  0  0  0  0  0  0  0
   -1.6290   22.7120   12.9260 H   0  0  0  0  0  0  0  0  0  0  0  0
    0.0750   22.9380   12.3580 H   0  0  0  0  0  0  0  0  0  0  0  0
   -2.1530   25.0840   12.4740 H   0  0  0  0  0  0  0  0  0  0  0  0
   -0.6800   24.9880   13.5110 H   0  0  0  0  0  0  0  0  0  0  0  0
    0.7990   25.3640   11.5990 H   0  0  0  0  0  0  0  0  0  0  0  0
   -0.4410   26.6780   11.6620 H   0  0  0  0  0  0  0  0  0  0  0  0
    6.3670   25.6810    4.3870 H   0  0  0  0  0  0  0  0  0  0  0  0
    4.6220   24.4980    8.1900 H   0  0  0  0  0  0  0  0  0  0  0  0
    3.2190   26.5020    8.1680 H   0  0  0  0  0  0  0  0  0  0  0  0
    0.0010   32.5190    6.6930 H   0  0  0  0  0  0  0  0  0  0  0  0
    3.6610   29.1190    5.4650 H   0  0  0  0  0  0  0  0  0  0  0  0
    4.9660   27.6460    4.3600 H   0  0  0  0  0  0  0  0  0  0  0  0
    6.6090   23.5200    6.3490 S   0  0  0  0  0  0  0  0  0  0  0  0
    7.6140   23.7370    7.3960 O   0  0  0  0  0  0  0  0  0  0  0  0
    5.7690   22.3250    6.5180 O   0  0  0  0  0  0  0  0  0  0  0  0
    7.4990   23.2560    4.9160 N   0  0  0  0  0  0  0  0  0  0  0  0
    8.6410   24.1590    4.6290 C   0  0  0  0  0  0  0  0  0  0  0  0
    9.0130   24.6510    5.5640 H   0  0  0  0  0  0  0  0  0  0  0  0
    9.4790   23.5450    4.1980 H   0  0  0  0  0  0  0  0  0  0  0  0
    8.3870   24.9610    3.8850 H   0  0  0  0  0  0  0  0  0  0  0  0
    6.7710   22.8200    3.7000 C   0  0  0  0  0  0  0  0  0  0  0  0
    7.5170   22.4760    2.9300 H   0  0  0  0  0  0  0  0  0  0  0  0
    6.1120   21.9460    3.9420 H   0  0  0  0  0  0  0  0  0  0  0  0
    6.1570   23.6360    3.2360 H   0  0  0  0  0  0  0  0  0  0  0  0
  1 14  2  0  0  0  0
  1 21  1  0  0  0  0
  1 22  1  0  0  0  0
  2 18  2  0  0  0  0
  2 19  1  0  0  0  0
  2 25  1  0  0  0  0
  3  4  1  0  0  0  0
  3 16  1  0  0  0  0
  3 26  1  0  0  0  0
  3 27  1  0  0  0  0
  4  5  1  0  0  0  0
  4  9  1  0  0  0  0
  4 28  1  0  0  0  0
  5  6  1  0  0  0  0
  5 29  1  0  0  0  0
  5 30  1  0  0  0  0
  6  7  1  0  0  0  0
  6 31  1  0  0  0  0
  6 32  1  0  0  0  0
  7  8  1  0  0  0  0
  7 33  1  0  0  0  0
  7 34  1  0  0  0  0
  8  9  1  0  0  0  0
  8 35  1  0  0  0  0
  8 36  1  0  0  0  0
  9 37  1  0  0  0  0
  9 38  1  0  0  0  0
 10 11  2  0  0  0  0
 10 24  1  0  0  0  0
 10 39  1  0  0  0  0
 11 12  1  0  0  0  0
 11 45  1  0  0  0  0
 12 13  2  0  0  0  0
 12 40  1  0  0  0  0
 13 23  1  0  0  0  0
 13 41  1  0  0  0  0
 14 15  1  0  0  0  0
 15 16  1  0  0  0  0
 15 17  2  0  0  0  0
 17 18  1  0  0  0  0
 17 20  1  0  0  0  0
 19 20  1  0  0  0  0
 19 42  1  0  0  0  0
 20 21  2  0  0  0  0
 22 23  1  0  0  0  0
 22 43  1  0  0  0  0
 23 24  2  0  0  0  0
 24 44  1  0  0  0  0
 45 46  2  0  0  0  0
 45 47  2  0  0  0  0
 45 48  1  0  0  0  0
 48 49  1  0  0  0  0
 48 53  1  0  0  0  0
 49 50  1  0  0  0  0
 49 51  1  0  0  0  0
 49 52  1  0  0  0  0
 53 54  1  0  0  0  0
 53 55  1  0  0  0  0
 53 56  1  0  0  0  0
M  END
$$$$
