18658-1
 OpenBabel02232411163D
Structure written by MMmdl.
 47 48  0  0  0  0  0  0  0  0999 V2000
   22.0780   13.0180   28.4530 O   0  0  0  0  0  0  0  0  0  0  0  0
   23.0440   12.7890   29.4920 C   0  0  0  0  0  0  0  0  0  0  0  0
   22.9990   11.3520   30.0300 C   0  0  0  0  0  0  0  0  0  0  0  0
   21.9620   11.3930   31.0780 O   0  0  0  0  0  0  0  0  0  0  0  0
   21.4290   10.2220   31.5050 C   0  0  0  0  0  0  0  0  0  0  0  0
   21.9240    9.0480   31.0510 N   0  0  0  0  0  0  0  0  0  0  0  0
   21.2600    7.8870   31.4320 C   0  0  0  0  0  0  0  0  0  0  0  0
   20.1500    7.9010   32.2700 C   0  0  0  0  0  0  0  0  0  0  0  0
   19.6510    9.1380   32.7550 C   0  0  0  0  0  0  0  0  0  0  0  0
   18.5290    9.1520   33.5450 N   0  0  0  0  0  0  0  0  0  0  0  0
   20.3090   10.3530   32.3790 C   0  0  0  0  0  0  0  0  0  0  0  0
   19.8830   11.6440   32.7570 C   0  0  0  0  0  0  0  0  0  0  0  0
   19.5770   12.7330   33.0150 N   0  0  0  0  0  0  0  0  0  0  0  0
   21.8240    6.7290   30.8530 N   0  0  0  0  0  0  0  0  0  0  0  0
   21.2350    5.4420   30.7950 C   0  0  0  0  0  0  0  0  0  0  0  0
   20.1790    5.1760   31.3290 O   0  0  0  0  0  0  0  0  0  0  0  0
   22.0190    4.4570   29.9380 C   0  0  0  0  0  0  0  0  0  0  0  0
   23.3450    4.0920   30.5370 C   0  0  0  0  0  0  0  0  0  0  0  0
   24.4810    4.9070   30.3140 C   0  0  0  0  0  0  0  0  0  0  0  0
   24.2190    5.9920   29.4830 O   0  0  0  0  0  0  0  0  0  0  0  0
   25.2540    7.0020   29.3480 C   0  0  0  0  0  0  0  0  0  0  0  0
   25.7280    4.6010   30.8700 C   0  0  0  0  0  0  0  0  0  0  0  0
   25.8640    3.4620   31.6590 C   0  0  0  0  0  0  0  0  0  0  0  0
   24.7430    2.6350   31.8680 C   0  0  0  0  0  0  0  0  0  0  0  0
   23.4920    2.9370   31.3100 C   0  0  0  0  0  0  0  0  0  0  0  0
   25.0210    1.5520   32.6770 O   0  0  0  0  0  0  0  0  0  0  0  0
   24.0170    0.5100   32.7820 C   0  0  0  0  0  0  0  0  0  0  0  0
   22.3600   12.4680   27.6450 H   0  0  0  0  0  0  0  0  0  0  0  0
   24.0700   13.0000   29.0980 H   0  0  0  0  0  0  0  0  0  0  0  0
   22.7570   13.5260   30.2820 H   0  0  0  0  0  0  0  0  0  0  0  0
   22.7190   10.6180   29.2410 H   0  0  0  0  0  0  0  0  0  0  0  0
   23.9540   11.0660   30.5300 H   0  0  0  0  0  0  0  0  0  0  0  0
   19.6410    6.9730   32.5450 H   0  0  0  0  0  0  0  0  0  0  0  0
   18.0530    8.2700   33.8150 H   0  0  0  0  0  0  0  0  0  0  0  0
   18.1160   10.0280   33.8640 H   0  0  0  0  0  0  0  0  0  0  0  0
   22.7340    6.8760   30.3470 H   0  0  0  0  0  0  0  0  0  0  0  0
   21.3990    3.5350   29.7970 H   0  0  0  0  0  0  0  0  0  0  0  0
   22.1930    4.9250   28.9290 H   0  0  0  0  0  0  0  0  0  0  0  0
   26.1200    6.5760   28.7990 H   0  0  0  0  0  0  0  0  0  0  0  0
   24.7310    7.7770   28.7420 H   0  0  0  0  0  0  0  0  0  0  0  0
   25.5430    7.3980   30.3440 H   0  0  0  0  0  0  0  0  0  0  0  0
   26.6030    5.2310   30.6900 H   0  0  0  0  0  0  0  0  0  0  0  0
   26.8320    3.2120   32.1020 H   0  0  0  0  0  0  0  0  0  0  0  0
   22.6380    2.2800   31.4730 H   0  0  0  0  0  0  0  0  0  0  0  0
   24.5460   -0.2470   33.4100 H   0  0  0  0  0  0  0  0  0  0  0  0
   23.1130    0.8960   33.3000 H   0  0  0  0  0  0  0  0  0  0  0  0
   23.7870    0.1010   31.7750 H   0  0  0  0  0  0  0  0  0  0  0  0
  1  2  1  0  0  0  0
  1 28  1  0  0  0  0
  2  3  1  0  0  0  0
  2 29  1  0  0  0  0
  2 30  1  0  0  0  0
  3  4  1  0  0  0  0
  3 31  1  0  0  0  0
  3 32  1  0  0  0  0
  4  5  1  0  0  0  0
  5 11  2  0  0  0  0
  5  6  1  0  0  0  0
  6  7  2  0  0  0  0
  7  8  1  0  0  0  0
  7 14  1  0  0  0  0
  8  9  2  0  0  0  0
  8 33  1  0  0  0  0
  9 10  1  0  0  0  0
  9 11  1  0  0  0  0
 10 34  1  0  0  0  0
 10 35  1  0  0  0  0
 11 12  1  0  0  0  0
 12 13  3  0  0  0  0
 14 15  1  0  0  0  0
 14 36  1  0  0  0  0
 15 16  2  0  0  0  0
 15 17  1  0  0  0  0
 17 18  1  0  0  0  0
 17 37  1  0  0  0  0
 17 38  1  0  0  0  0
 18 25  2  0  0  0  0
 18 19  1  0  0  0  0
 19 20  1  0  0  0  0
 19 22  2  0  0  0  0
 20 21  1  0  0  0  0
 21 39  1  0  0  0  0
 21 40  1  0  0  0  0
 21 41  1  0  0  0  0
 22 23  1  0  0  0  0
 22 42  1  0  0  0  0
 23 24  2  0  0  0  0
 23 43  1  0  0  0  0
 24 25  1  0  0  0  0
 24 26  1  0  0  0  0
 25 44  1  0  0  0  0
 26 27  1  0  0  0  0
 27 45  1  0  0  0  0
 27 46  1  0  0  0  0
 27 47  1  0  0  0  0
M  END
$$$$
