p38a_2l
 OpenBabel02232411163D
Structure written by MMmdl.
 49 52  0  0  0  0  0  0  0  0999 V2000
   38.2910   36.5610   17.1180 C   0  0  0  0  0  0  0  0  0  0  0  0
   34.5700   35.0910   21.1720 C   0  0  0  0  0  0  0  0  0  0  0  0
   37.4980   36.1000   18.1650 C   0  0  0  0  0  0  0  0  0  0  0  0
   33.9650   39.1510   23.7300 C   0  0  0  0  0  0  0  0  0  0  0  0
   34.6420   37.9670   21.3340 C   0  0  0  0  0  0  0  0  0  0  0  0
   35.0350   37.3200   20.1120 C   0  0  0  0  0  0  0  0  0  0  0  0
   37.6520   36.7330   15.8830 C   0  0  0  0  0  0  0  0  0  0  0  0
   36.3040   36.4420   15.6650 C   0  0  0  0  0  0  0  0  0  0  0  0
   35.5320   35.9650   16.7290 C   0  0  0  0  0  0  0  0  0  0  0  0
   34.2950   37.1840   22.4760 C   0  0  0  0  0  0  0  0  0  0  0  0
   34.5960   39.3790   21.4830 C   0  0  0  0  0  0  0  0  0  0  0  0
   35.0320   35.9680   20.0620 C   0  0  0  0  0  0  0  0  0  0  0  0
   36.1350   35.7860   17.9770 C   0  0  0  0  0  0  0  0  0  0  0  0
   38.0210   35.9530   19.3760 F   0  0  0  0  0  0  0  0  0  0  0  0
   35.4040   35.1570   18.9920 O   0  0  0  0  0  0  0  0  0  0  0  0
   34.2750   39.9840   22.6370 N   0  0  0  0  0  0  0  0  0  0  0  0
   34.4420   33.8880   21.1040 O   0  0  0  0  0  0  0  0  0  0  0  0
   34.2870   35.7790   22.4020 N   0  0  0  0  0  0  0  0  0  0  0  0
   33.9760   37.7710   23.6740 N   0  0  0  0  0  0  0  0  0  0  0  0
   33.5590   39.7570   24.8990 N   0  0  0  0  0  0  0  0  0  0  0  0
   39.3460   36.8130   17.2620 H   0  0  0  0  0  0  0  0  0  0  0  0
   35.3330   37.9460   19.2690 H   0  0  0  0  0  0  0  0  0  0  0  0
   35.8400   36.5970   14.6880 H   0  0  0  0  0  0  0  0  0  0  0  0
   34.4680   35.7510   16.5790 H   0  0  0  0  0  0  0  0  0  0  0  0
   34.8260   40.0290   20.6230 H   0  0  0  0  0  0  0  0  0  0  0  0
   33.6770   40.7820   25.0110 H   0  0  0  0  0  0  0  0  0  0  0  0
   38.3580   37.2380   14.8740 F   0  0  0  0  0  0  0  0  0  0  0  0
   32.1530   38.9920   28.3660 C   0  0  0  0  0  0  0  0  0  0  0  0
   32.2830   39.6850   27.0040 C   0  0  0  0  0  0  0  0  0  0  0  0
   33.3790   38.9890   26.1690 C   0  0  0  0  0  0  0  0  0  0  0  0
   34.7030   38.9300   26.9620 C   0  0  0  0  0  0  0  0  0  0  0  0
   34.4610   38.2810   28.3300 C   0  0  0  0  0  0  0  0  0  0  0  0
   33.4170   38.9590   29.0670 O   0  0  0  0  0  0  0  0  0  0  0  0
   31.7750   37.9500   28.2480 H   0  0  0  0  0  0  0  0  0  0  0  0
   31.5130   39.5810   29.0610 H   0  0  0  0  0  0  0  0  0  0  0  0
   32.5450   40.7600   27.1540 H   0  0  0  0  0  0  0  0  0  0  0  0
   31.3090   39.6320   26.4610 H   0  0  0  0  0  0  0  0  0  0  0  0
   33.0420   37.9430   25.9200 H   0  0  0  0  0  0  0  0  0  0  0  0
   35.4540   38.3240   26.4000 H   0  0  0  0  0  0  0  0  0  0  0  0
   35.1110   39.9600   27.0960 H   0  0  0  0  0  0  0  0  0  0  0  0
   34.1820   37.2070   28.2170 H   0  0  0  0  0  0  0  0  0  0  0  0
   35.3430   38.4050   28.9990 H   0  0  0  0  0  0  0  0  0  0  0  0
   33.8390   34.9700   23.5880 C   0  0  0  0  0  0  0  0  0  0  0  0
   34.3180   33.9560   23.5160 H   0  0  0  0  0  0  0  0  0  0  0  0
   34.2000   35.4740   24.5290 H   0  0  0  0  0  0  0  0  0  0  0  0
   32.3190   34.8320   23.6290 C   0  0  0  0  0  0  0  0  0  0  0  0
   31.8290   35.8260   23.7580 H   0  0  0  0  0  0  0  0  0  0  0  0
   31.9200   34.3510   22.7100 H   0  0  0  0  0  0  0  0  0  0  0  0
   32.0380   34.2000   24.5080 H   0  0  0  0  0  0  0  0  0  0  0  0
  1  3  2  0  0  0  0
  1  7  1  0  0  0  0
  1 21  1  0  0  0  0
  2 12  1  0  0  0  0
  2 17  2  0  0  0  0
  2 18  1  0  0  0  0
  3 13  1  0  0  0  0
  3 14  1  0  0  0  0
  4 16  2  0  0  0  0
  4 19  1  0  0  0  0
  4 20  1  0  0  0  0
  5  6  1  0  0  0  0
  5 10  1  0  0  0  0
  5 11  2  0  0  0  0
  6 12  2  0  0  0  0
  6 22  1  0  0  0  0
  7  8  2  0  0  0  0
  7 27  1  0  0  0  0
  8  9  1  0  0  0  0
  8 23  1  0  0  0  0
  9 13  2  0  0  0  0
  9 24  1  0  0  0  0
 10 18  1  0  0  0  0
 10 19  2  0  0  0  0
 11 16  1  0  0  0  0
 11 25  1  0  0  0  0
 12 15  1  0  0  0  0
 13 15  1  0  0  0  0
 18 43  1  0  0  0  0
 20 26  1  0  0  0  0
 20 30  1  0  0  0  0
 28 29  1  0  0  0  0
 28 33  1  0  0  0  0
 28 34  1  0  0  0  0
 28 35  1  0  0  0  0
 29 30  1  0  0  0  0
 29 36  1  0  0  0  0
 29 37  1  0  0  0  0
 30 31  1  0  0  0  0
 30 38  1  0  0  0  0
 31 32  1  0  0  0  0
 31 39  1  0  0  0  0
 31 40  1  0  0  0  0
 32 33  1  0  0  0  0
 32 41  1  0  0  0  0
 32 42  1  0  0  0  0
 43 44  1  0  0  0  0
 43 45  1  0  0  0  0
 43 46  1  0  0  0  0
 46 47  1  0  0  0  0
 46 48  1  0  0  0  0
 46 49  1  0  0  0  0
M  END
$$$$
