p38a_2l
 OpenBabel02232411163D
Structure written by MMmdl.
 49 52  0  0  0  0  0  0  0  0999 V2000
   38.2860   36.5430   17.1540 C   0  0  0  0  0  0  0  0  0  0  0  0
   34.5570   35.0760   21.2060 C   0  0  0  0  0  0  0  0  0  0  0  0
   37.4930   36.0840   18.2020 C   0  0  0  0  0  0  0  0  0  0  0  0
   34.0020   39.1450   23.7650 C   0  0  0  0  0  0  0  0  0  0  0  0
   34.6430   37.9520   21.3640 C   0  0  0  0  0  0  0  0  0  0  0  0
   35.0320   37.3020   20.1420 C   0  0  0  0  0  0  0  0  0  0  0  0
   37.6500   36.7070   15.9160 C   0  0  0  0  0  0  0  0  0  0  0  0
   36.3030   36.4090   15.6960 C   0  0  0  0  0  0  0  0  0  0  0  0
   35.5310   35.9350   16.7620 C   0  0  0  0  0  0  0  0  0  0  0  0
   34.2950   37.1740   22.5080 C   0  0  0  0  0  0  0  0  0  0  0  0
   34.6100   39.3650   21.5110 C   0  0  0  0  0  0  0  0  0  0  0  0
   35.0200   35.9510   20.0940 C   0  0  0  0  0  0  0  0  0  0  0  0
   36.1310   35.7650   18.0120 C   0  0  0  0  0  0  0  0  0  0  0  0
   38.0140   35.9440   19.4140 F   0  0  0  0  0  0  0  0  0  0  0  0
   35.3980   35.1370   19.0270 O   0  0  0  0  0  0  0  0  0  0  0  0
   34.3070   39.9750   22.6680 N   0  0  0  0  0  0  0  0  0  0  0  0
   34.4270   33.8740   21.1400 O   0  0  0  0  0  0  0  0  0  0  0  0
   34.2270   35.7720   22.4220 N   0  0  0  0  0  0  0  0  0  0  0  0
   33.9990   37.7650   23.7100 N   0  0  0  0  0  0  0  0  0  0  0  0
   33.6230   39.7580   24.9390 N   0  0  0  0  0  0  0  0  0  0  0  0
   39.3400   36.8010   17.2990 H   0  0  0  0  0  0  0  0  0  0  0  0
   35.3360   37.9260   19.2990 H   0  0  0  0  0  0  0  0  0  0  0  0
   35.8420   36.5560   14.7180 H   0  0  0  0  0  0  0  0  0  0  0  0
   34.4680   35.7170   16.6110 H   0  0  0  0  0  0  0  0  0  0  0  0
   34.8380   40.0120   20.6480 H   0  0  0  0  0  0  0  0  0  0  0  0
   33.7420   40.7850   25.0410 H   0  0  0  0  0  0  0  0  0  0  0  0
   38.3570   37.2110   14.9080 F   0  0  0  0  0  0  0  0  0  0  0  0
   32.3040   39.0460   28.4510 C   0  0  0  0  0  0  0  0  0  0  0  0
   32.4050   39.7230   27.0790 C   0  0  0  0  0  0  0  0  0  0  0  0
   33.4640   39.0000   26.2170 C   0  0  0  0  0  0  0  0  0  0  0  0
   34.8090   38.9190   26.9720 C   0  0  0  0  0  0  0  0  0  0  0  0
   34.5940   38.2870   28.3520 C   0  0  0  0  0  0  0  0  0  0  0  0
   33.5870   38.9940   29.1140 O   0  0  0  0  0  0  0  0  0  0  0  0
   31.9010   38.0110   28.3560 H   0  0  0  0  0  0  0  0  0  0  0  0
   31.6970   39.6570   29.1580 H   0  0  0  0  0  0  0  0  0  0  0  0
   32.6890   40.7940   27.2120 H   0  0  0  0  0  0  0  0  0  0  0  0
   31.4150   39.6830   26.5650 H   0  0  0  0  0  0  0  0  0  0  0  0
   33.1000   37.9600   25.9830 H   0  0  0  0  0  0  0  0  0  0  0  0
   35.5290   38.2920   26.3930 H   0  0  0  0  0  0  0  0  0  0  0  0
   35.2420   39.9420   27.0850 H   0  0  0  0  0  0  0  0  0  0  0  0
   34.2900   37.2180   28.2580 H   0  0  0  0  0  0  0  0  0  0  0  0
   35.4980   38.4000   28.9940 H   0  0  0  0  0  0  0  0  0  0  0  0
   33.9240   34.9580   23.6500 C   0  0  0  0  0  0  0  0  0  0  0  0
   33.2680   35.5620   24.3380 H   0  0  0  0  0  0  0  0  0  0  0  0
   33.3550   34.0430   23.3290 H   0  0  0  0  0  0  0  0  0  0  0  0
   35.2040   34.5560   24.3820 C   0  0  0  0  0  0  0  0  0  0  0  0
   35.7840   33.8040   23.8080 H   0  0  0  0  0  0  0  0  0  0  0  0
   35.8410   35.4450   24.5870 H   0  0  0  0  0  0  0  0  0  0  0  0
   34.9250   34.1050   25.3680 H   0  0  0  0  0  0  0  0  0  0  0  0
  1  3  2  0  0  0  0
  1  7  1  0  0  0  0
  1 21  1  0  0  0  0
  2 12  1  0  0  0  0
  2 17  2  0  0  0  0
  2 18  1  0  0  0  0
  3 13  1  0  0  0  0
  3 14  1  0  0  0  0
  4 16  2  0  0  0  0
  4 19  1  0  0  0  0
  4 20  1  0  0  0  0
  5  6  1  0  0  0  0
  5 10  1  0  0  0  0
  5 11  2  0  0  0  0
  6 12  2  0  0  0  0
  6 22  1  0  0  0  0
  7  8  2  0  0  0  0
  7 27  1  0  0  0  0
  8  9  1  0  0  0  0
  8 23  1  0  0  0  0
  9 13  2  0  0  0  0
  9 24  1  0  0  0  0
 10 18  1  0  0  0  0
 10 19  2  0  0  0  0
 11 16  1  0  0  0  0
 11 25  1  0  0  0  0
 12 15  1  0  0  0  0
 13 15  1  0  0  0  0
 18 43  1  0  0  0  0
 20 26  1  0  0  0  0
 20 30  1  0  0  0  0
 28 29  1  0  0  0  0
 28 33  1  0  0  0  0
 28 34  1  0  0  0  0
 28 35  1  0  0  0  0
 29 30  1  0  0  0  0
 29 36  1  0  0  0  0
 29 37  1  0  0  0  0
 30 31  1  0  0  0  0
 30 38  1  0  0  0  0
 31 32  1  0  0  0  0
 31 39  1  0  0  0  0
 31 40  1  0  0  0  0
 32 33  1  0  0  0  0
 32 41  1  0  0  0  0
 32 42  1  0  0  0  0
 43 44  1  0  0  0  0
 43 45  1  0  0  0  0
 43 46  1  0  0  0  0
 46 47  1  0  0  0  0
 46 48  1  0  0  0  0
 46 49  1  0  0  0  0
M  END
$$$$
