47
 OpenBabel02232411163D
Structure written by MMmdl.
 43 46  0  0  0  0  0  0  0  0999 V2000
    4.0970  -51.2060    7.4920 O   0  0  0  0  0  0  0  0  0  0  0  0
    3.5010  -50.1230    7.3260 C   0  0  0  0  0  0  0  0  0  0  0  0
    3.9920  -48.9910    7.4500 O   0  5  0  0  0  0  0  0  0  0  0  0
    2.0230  -50.2240    6.9140 C   0  0  0  0  0  0  0  0  0  0  0  0
   -0.0210  -51.2130    6.7180 C   0  0  0  0  0  0  0  0  0  0  0  0
   -1.1280  -52.0800    6.7990 C   0  0  0  0  0  0  0  0  0  0  0  0
   -2.3280  -51.6370    6.2740 C   0  0  0  0  0  0  0  0  0  0  0  0
   -2.4290  -50.3630    5.6630 C   0  0  0  0  0  0  0  0  0  0  0  0
   -1.3390  -49.5120    5.5670 C   0  0  0  0  0  0  0  0  0  0  0  0
   -0.0990  -49.9030    6.1100 C   0  0  0  0  0  0  0  0  0  0  0  0
    1.2040  -49.2970    6.2650 C   0  0  0  0  0  0  0  0  0  0  0  0
    1.6890  -47.9510    5.8500 C   0  0  0  0  0  0  0  0  0  0  0  0
    0.6370  -46.8510    5.6650 C   0  0  0  0  0  0  0  0  0  0  0  0
   -0.2670  -46.6610    6.8820 C   0  0  0  0  0  0  0  0  0  0  0  0
   -1.4060  -45.9390    6.2820 O   0  0  0  0  0  0  0  0  0  0  0  0
   -2.5910  -45.8390    6.9380 C   0  0  0  0  0  0  0  0  0  0  0  0
   -4.1250  -46.3520    8.7450 C   0  0  0  0  0  0  0  0  0  0  0  0
   -2.8860  -46.4880    8.1810 C   0  0  0  0  0  0  0  0  0  0  0  0
   -1.0470  -53.0620    7.2660 H   0  0  0  0  0  0  0  0  0  0  0  0
   -3.2170  -52.2670    6.3280 H   0  0  0  0  0  0  0  0  0  0  0  0
   -3.3960  -50.0570    5.2590 H   0  0  0  0  0  0  0  0  0  0  0  0
   -1.4650  -48.5490    5.0730 H   0  0  0  0  0  0  0  0  0  0  0  0
    2.2320  -48.0550    4.8760 H   0  0  0  0  0  0  0  0  0  0  0  0
    2.4290  -47.5980    6.6250 H   0  0  0  0  0  0  0  0  0  0  0  0
    1.1590  -45.8900    5.4390 H   0  0  0  0  0  0  0  0  0  0  0  0
   -0.0200  -47.0880    4.7910 H   0  0  0  0  0  0  0  0  0  0  0  0
    0.1470  -45.9880    7.6560 H   0  0  0  0  0  0  0  0  0  0  0  0
   -0.6290  -47.6290    7.2860 H   0  0  0  0  0  0  0  0  0  0  0  0
   -2.1450  -47.1190    8.6650 H   0  0  0  0  0  0  0  0  0  0  0  0
   -3.5400  -45.0600    6.2860 C   0  0  0  0  0  0  0  0  0  0  0  0
   -4.3760  -46.8480    9.6890 H   0  0  0  0  0  0  0  0  0  0  0  0
   -4.8300  -44.9200    6.8530 C   0  0  0  0  0  0  0  0  0  0  0  0
   -5.1340  -45.5750    8.0850 C   0  0  0  0  0  0  0  0  0  0  0  0
   -6.4030  -45.5480    8.6430 N   0  0  0  0  0  0  0  0  0  0  0  0
   -7.3670  -44.9180    7.9810 C   0  0  0  0  0  0  0  0  0  0  0  0
   -7.1450  -44.2140    6.7510 C   0  0  0  0  0  0  0  0  0  0  0  0
   -5.8890  -44.2040    6.2020 C   0  0  0  0  0  0  0  0  0  0  0  0
   -8.3780  -44.9630    8.3980 H   0  0  0  0  0  0  0  0  0  0  0  0
   -7.9830  -43.7090    6.2730 H   0  0  0  0  0  0  0  0  0  0  0  0
   -5.6840  -43.6750    5.2690 H   0  0  0  0  0  0  0  0  0  0  0  0
   -3.3200  -44.5810    5.3330 H   0  0  0  0  0  0  0  0  0  0  0  0
    1.2860  -51.3880    7.1870 N   0  0  0  0  0  0  0  0  0  0  0  0
    1.6090  -52.2330    7.6460 H   0  0  0  0  0  0  0  0  0  0  0  0
  1  2  2  0  0  0  0
  2  3  1  0  0  0  0
  2  4  1  0  0  0  0
  4 11  2  0  0  0  0
  4 42  1  0  0  0  0
  5  6  2  0  0  0  0
  5 10  1  0  0  0  0
  5 42  1  0  0  0  0
  6  7  1  0  0  0  0
  6 19  1  0  0  0  0
  7  8  2  0  0  0  0
  7 20  1  0  0  0  0
  8  9  1  0  0  0  0
  8 21  1  0  0  0  0
  9 10  2  0  0  0  0
  9 22  1  0  0  0  0
 10 11  1  0  0  0  0
 11 12  1  0  0  0  0
 12 23  1  0  0  0  0
 12 24  1  0  0  0  0
 12 13  1  0  0  0  0
 13 14  1  0  0  0  0
 13 25  1  0  0  0  0
 13 26  1  0  0  0  0
 14 15  1  0  0  0  0
 14 27  1  0  0  0  0
 14 28  1  0  0  0  0
 15 16  1  0  0  0  0
 16 18  2  0  0  0  0
 16 30  1  0  0  0  0
 17 18  1  0  0  0  0
 17 31  1  0  0  0  0
 17 33  2  0  0  0  0
 18 29  1  0  0  0  0
 30 32  2  0  0  0  0
 30 41  1  0  0  0  0
 32 33  1  0  0  0  0
 32 37  1  0  0  0  0
 33 34  1  0  0  0  0
 34 35  2  0  0  0  0
 35 36  1  0  0  0  0
 35 38  1  0  0  0  0
 36 37  2  0  0  0  0
 36 39  1  0  0  0  0
 37 40  1  0  0  0  0
 42 43  1  0  0  0  0
M  CHG  1   3  -1
M  END
$$$$
