CAT-13i
 OpenBabel02232411143D
Structure written by MMmdl.
 46 49  0  0  1  0  0  0  0  0999 V2000
   11.5800   -2.1690    1.2870 C   0  0  0  0  0  0  0  0  0  0  0  0
   12.9330   -2.2250    0.6990 N   0  0  0  0  0  0  0  0  0  0  0  0
   14.1130   -2.2680    1.4370 C   0  0  0  0  0  0  0  0  0  0  0  0
   14.2540   -2.3320    2.7870 N   0  0  0  0  0  0  0  0  0  0  0  0
   15.2200   -2.3070    0.5700 N   0  3  0  0  0  0  0  0  0  0  0  0
   14.7570   -2.7990   -0.7850 C   0  0  2  0  0  0  0  0  0  0  0  0
   14.9740   -4.3280   -0.8730 C   0  0  0  0  0  0  0  0  0  0  0  0
   14.4280   -5.0240    0.3640 C   0  0  0  0  0  0  0  0  0  0  0  0
   12.9430   -5.3380    0.5430 C   0  0  0  0  0  0  0  0  0  0  0  0
   13.9370   -6.4650    0.3880 C   0  0  0  0  0  0  0  0  0  0  0  0
   15.3420   -1.8770   -1.8340 C   0  0  0  0  0  0  0  0  0  0  0  0
   16.0600   -2.3400   -2.9390 C   0  0  0  0  0  0  0  0  0  0  0  0
   16.5300   -1.4180   -3.8820 C   0  0  0  0  0  0  0  0  0  0  0  0
   16.3020   -0.0490   -3.7320 C   0  0  0  0  0  0  0  0  0  0  0  0
   15.6080    0.4280   -2.6070 C   0  0  0  0  0  0  0  0  0  0  0  0
   15.3860    1.8760   -2.3850 C   0  0  0  0  0  0  0  0  0  0  0  0
   15.6240    2.4230   -1.1130 C   0  0  0  0  0  0  0  0  0  0  0  0
   15.3380    3.7650   -0.8490 C   0  0  0  0  0  0  0  0  0  0  0  0
   14.8290    4.5860   -1.8580 C   0  0  0  0  0  0  0  0  0  0  0  0
   14.6500    4.0440   -3.1350 C   0  0  0  0  0  0  0  0  0  0  0  0
   14.0730    5.0700   -4.3880 Cl  0  0  0  0  0  0  0  0  0  0  0  0
   14.9140    2.7020   -3.4180 C   0  0  0  0  0  0  0  0  0  0  0  0
   15.1240   -0.4960   -1.6710 C   0  0  0  0  0  0  0  0  0  0  0  0
   13.2160   -2.5430   -0.7190 C   0  0  0  0  0  0  0  0  0  0  0  0
   12.3650   -2.5440   -1.5500 O   0  0  0  0  0  0  0  0  0  0  0  0
   11.6110   -2.3810    2.3870 H   0  0  0  0  0  0  0  0  0  0  0  0
   11.1540   -1.1430    1.1140 H   0  0  0  0  0  0  0  0  0  0  0  0
   10.9250   -2.9390    0.7970 H   0  0  0  0  0  0  0  0  0  0  0  0
   13.5370   -1.9510    3.4470 H   0  0  0  0  0  0  0  0  0  0  0  0
   16.1290   -2.6830    0.9610 H   0  0  0  0  0  0  0  0  0  0  0  0
   16.0750   -4.5370   -0.9320 H   0  0  0  0  0  0  0  0  0  0  0  0
   14.4910   -4.7230   -1.8010 H   0  0  0  0  0  0  0  0  0  0  0  0
   14.9620   -4.7040    1.2740 H   0  0  0  0  0  0  0  0  0  0  0  0
   12.5030   -5.1550    1.5340 H   0  0  0  0  0  0  0  0  0  0  0  0
   12.2460   -5.1410   -0.2770 H   0  0  0  0  0  0  0  0  0  0  0  0
   13.9120   -7.0510   -0.5300 H   0  0  0  0  0  0  0  0  0  0  0  0
   14.1880   -7.0660    1.2750 H   0  0  0  0  0  0  0  0  0  0  0  0
   16.2600   -3.4040   -3.0670 H   0  0  0  0  0  0  0  0  0  0  0  0
   17.0950   -1.7670   -4.7480 H   0  0  0  0  0  0  0  0  0  0  0  0
   16.6750    0.6470   -4.4910 H   0  0  0  0  0  0  0  0  0  0  0  0
   16.0200    1.7900   -0.3170 H   0  0  0  0  0  0  0  0  0  0  0  0
   15.5020    4.1600    0.1570 H   0  0  0  0  0  0  0  0  0  0  0  0
   14.5590    5.6230   -1.6430 H   0  0  0  0  0  0  0  0  0  0  0  0
   14.7460    2.2950   -4.4200 H   0  0  0  0  0  0  0  0  0  0  0  0
   14.5810   -0.1390   -0.7940 H   0  0  0  0  0  0  0  0  0  0  0  0
   15.2300   -2.3000    3.1950 H   0  0  0  0  0  0  0  0  0  0  0  0
  1  2  1  0  0  0  0
  1 26  1  0  0  0  0
  1 27  1  0  0  0  0
  1 28  1  0  0  0  0
  2  3  1  0  0  0  0
  2 24  1  0  0  0  0
  3  4  1  0  0  0  0
  3  5  2  0  0  0  0
  4 29  1  0  0  0  0
  4 46  1  0  0  0  0
  5  6  1  0  0  0  0
  5 30  1  0  0  0  0
  6  7  1  6  0  0  0
  6 11  1  0  0  0  0
  6 24  1  0  0  0  0
  7  8  1  0  0  0  0
  7 31  1  0  0  0  0
  7 32  1  0  0  0  0
  8  9  1  0  0  0  0
  8 10  1  0  0  0  0
  8 33  1  0  0  0  0
  9 10  1  0  0  0  0
  9 34  1  0  0  0  0
  9 35  1  0  0  0  0
 10 36  1  0  0  0  0
 10 37  1  0  0  0  0
 11 12  2  0  0  0  0
 11 23  1  0  0  0  0
 12 13  1  0  0  0  0
 12 38  1  0  0  0  0
 13 14  2  0  0  0  0
 13 39  1  0  0  0  0
 14 15  1  0  0  0  0
 14 40  1  0  0  0  0
 15 16  1  0  0  0  0
 15 23  2  0  0  0  0
 16 17  2  0  0  0  0
 16 22  1  0  0  0  0
 17 18  1  0  0  0  0
 17 41  1  0  0  0  0
 18 19  2  0  0  0  0
 18 42  1  0  0  0  0
 19 20  1  0  0  0  0
 19 43  1  0  0  0  0
 20 21  1  0  0  0  0
 20 22  2  0  0  0  0
 22 44  1  0  0  0  0
 23 45  1  0  0  0  0
 24 25  2  0  0  0  0
M  CHG  1   5   1
M  END
$$$$
