20667(2qbp)
 OpenBabel02232411173D
Structure written by MMmdl.
 60 63  0  0  0  0  0  0  0  0999 V2000
   42.3870   18.0140   12.6280 O   0  0  0  0  0  0  0  0  0  0  0  0
   41.2490   17.7090   13.0020 C   0  0  0  0  0  0  0  0  0  0  0  0
   40.1950   18.3410   12.7710 O   0  5  0  0  0  0  0  0  0  0  0  0
   41.0650   16.4050   13.8360 C   0  0  0  0  0  0  0  0  0  0  0  0
   42.4350   15.8920   13.8560 O   0  0  0  0  0  0  0  0  0  0  0  0
   42.6800   14.9720   14.8240 C   0  0  0  0  0  0  0  0  0  0  0  0
   42.1080   13.6420   14.8330 C   0  0  0  0  0  0  0  0  0  0  0  0
   40.9000   13.0780   13.4720 Br  0  0  0  0  0  0  0  0  0  0  0  0
   42.5470   12.8360   15.8520 C   0  0  0  0  0  0  0  0  0  0  0  0
   42.1400   11.4860   16.1850 C   0  0  0  0  0  0  0  0  0  0  0  0
   43.0160   10.5410   16.7670 C   0  0  0  0  0  0  0  0  0  0  0  0
   42.5780    9.2390   16.9860 C   0  0  0  0  0  0  0  0  0  0  0  0
   41.3020    8.8080   16.5880 C   0  0  0  0  0  0  0  0  0  0  0  0
   40.4230    9.7400   16.0220 C   0  0  0  0  0  0  0  0  0  0  0  0
   39.0700    9.4740   15.6360 N   0  0  0  0  0  0  0  0  0  0  0  0
   38.6000    8.1030   15.3100 C   0  0  0  0  0  0  0  0  0  0  0  0
   37.1060    8.0490   15.7230 C   0  0  0  0  0  0  0  0  0  0  0  0
   36.4750    6.7060   15.3200 C   0  0  0  0  0  0  0  0  0  0  0  0
   36.6030    6.5310   13.8400 N   0  0  0  0  0  0  0  0  0  0  0  0
   35.4340    5.5610   13.0850 S   0  0  0  0  0  0  0  0  0  0  0  0
   35.3880    5.9360   11.6620 O   0  0  0  0  0  0  0  0  0  0  0  0
   34.1680    5.7740   13.7790 O   0  0  0  0  0  0  0  0  0  0  0  0
   35.8630    3.8690   13.3330 C   0  0  0  0  0  0  0  0  0  0  0  0
   36.6760    3.2220   12.2650 C   0  0  0  0  0  0  0  0  0  0  0  0
   38.0100    2.8700   12.5210 C   0  0  0  0  0  0  0  0  0  0  0  0
   38.7390    2.1430   11.5770 C   0  0  0  0  0  0  0  0  0  0  0  0
   38.1560    1.7900   10.3570 C   0  0  0  0  0  0  0  0  0  0  0  0
   36.8370    2.1690   10.0850 C   0  0  0  0  0  0  0  0  0  0  0  0
   36.0920    2.8690   11.0360 C   0  0  0  0  0  0  0  0  0  0  0  0
   38.0390    6.4590   13.4340 C   0  0  0  0  0  0  0  0  0  0  0  0
   38.7420    7.7820   13.7940 C   0  0  0  0  0  0  0  0  0  0  0  0
   40.8300   11.0880   15.8950 C   0  0  0  0  0  0  0  0  0  0  0  0
   43.7400   13.7150   16.7740 S   0  0  0  0  0  0  0  0  0  0  0  0
   43.6030   15.1730   15.8200 C   0  0  0  0  0  0  0  0  0  0  0  0
   44.4290   16.4090   16.1770 C   0  0  0  0  0  0  0  0  0  0  0  0
   45.1290   16.2930   17.2100 O   0  0  0  0  0  0  0  0  0  0  0  0
   44.3830   17.3930   15.4390 O   0  5  0  0  0  0  0  0  0  0  0  0
   40.4040   15.6850   13.3110 H   0  0  0  0  0  0  0  0  0  0  0  0
   40.6940   16.5990   14.8620 H   0  0  0  0  0  0  0  0  0  0  0  0
   44.0360   10.8080   17.0430 H   0  0  0  0  0  0  0  0  0  0  0  0
   43.2410    8.5130   17.4610 H   0  0  0  0  0  0  0  0  0  0  0  0
   41.0250    7.7660   16.7260 H   0  0  0  0  0  0  0  0  0  0  0  0
   38.7280   10.1410   14.9060 H   0  0  0  0  0  0  0  0  0  0  0  0
   39.1620    7.3320   15.8960 H   0  0  0  0  0  0  0  0  0  0  0  0
   37.0250    8.1550   16.8310 H   0  0  0  0  0  0  0  0  0  0  0  0
   36.5470    8.8740   15.2260 H   0  0  0  0  0  0  0  0  0  0  0  0
   36.9920    5.8650   15.8650 H   0  0  0  0  0  0  0  0  0  0  0  0
   35.3930    6.7090   15.6100 H   0  0  0  0  0  0  0  0  0  0  0  0
   36.3950    3.7580   14.3260 H   0  0  0  0  0  0  0  0  0  0  0  0
   34.9200    3.2580   13.4710 H   0  0  0  0  0  0  0  0  0  0  0  0
   38.4840    3.1370   13.4710 H   0  0  0  0  0  0  0  0  0  0  0  0
   39.7630    1.8450   11.8110 H   0  0  0  0  0  0  0  0  0  0  0  0
   38.7210    1.2090    9.6270 H   0  0  0  0  0  0  0  0  0  0  0  0
   36.3820    1.8900    9.1330 H   0  0  0  0  0  0  0  0  0  0  0  0
   35.0490    3.1160   10.8300 H   0  0  0  0  0  0  0  0  0  0  0  0
   38.5560    5.6120   13.9710 H   0  0  0  0  0  0  0  0  0  0  0  0
   38.1100    6.2850   12.3330 H   0  0  0  0  0  0  0  0  0  0  0  0
   38.2940    8.6120   13.1990 H   0  0  0  0  0  0  0  0  0  0  0  0
   39.8240    7.6820   13.5450 H   0  0  0  0  0  0  0  0  0  0  0  0
   40.0840   11.8150   15.5700 H   0  0  0  0  0  0  0  0  0  0  0  0
  1  2  2  0  0  0  0
  2  3  1  0  0  0  0
  2  4  1  0  0  0  0
  4  5  1  0  0  0  0
  4 38  1  0  0  0  0
  4 39  1  0  0  0  0
  5  6  1  0  0  0  0
  6 34  2  0  0  0  0
  6  7  1  0  0  0  0
  7  8  1  0  0  0  0
  7  9  2  0  0  0  0
  9 10  1  0  0  0  0
  9 33  1  0  0  0  0
 10 32  2  0  0  0  0
 10 11  1  0  0  0  0
 11 12  2  0  0  0  0
 11 40  1  0  0  0  0
 12 13  1  0  0  0  0
 12 41  1  0  0  0  0
 13 14  2  0  0  0  0
 13 42  1  0  0  0  0
 14 15  1  0  0  0  0
 14 32  1  0  0  0  0
 15 16  1  0  0  0  0
 15 43  1  0  0  0  0
 16 31  1  0  0  0  0
 16 17  1  0  0  0  0
 16 44  1  0  0  0  0
 17 18  1  0  0  0  0
 17 45  1  0  0  0  0
 17 46  1  0  0  0  0
 18 19  1  0  0  0  0
 18 47  1  0  0  0  0
 18 48  1  0  0  0  0
 19 20  1  0  0  0  0
 19 30  1  0  0  0  0
 20 21  2  0  0  0  0
 20 22  2  0  0  0  0
 20 23  1  0  0  0  0
 23 24  1  0  0  0  0
 23 49  1  0  0  0  0
 23 50  1  0  0  0  0
 24 29  2  0  0  0  0
 24 25  1  0  0  0  0
 25 26  2  0  0  0  0
 25 51  1  0  0  0  0
 26 27  1  0  0  0  0
 26 52  1  0  0  0  0
 27 28  2  0  0  0  0
 27 53  1  0  0  0  0
 28 29  1  0  0  0  0
 28 54  1  0  0  0  0
 29 55  1  0  0  0  0
 30 31  1  0  0  0  0
 30 56  1  0  0  0  0
 30 57  1  0  0  0  0
 31 58  1  0  0  0  0
 31 59  1  0  0  0  0
 32 60  1  0  0  0  0
 33 34  1  0  0  0  0
 34 35  1  0  0  0  0
 35 36  2  0  0  0  0
 35 37  1  0  0  0  0
M  CHG  2   3  -1  37  -1
M  END
$$$$
