p38a_3flw
 OpenBabel02232411163D
Structure written by MMmdl.
 49 51  0  0  0  0  0  0  0  0999 V2000
   38.2460   36.5290   17.1850 C   0  0  0  0  0  0  0  0  0  0  0  0
   37.6140   36.7080   15.9470 C   0  0  0  0  0  0  0  0  0  0  0  0
   33.9010   39.7910   27.5800 C   0  0  0  0  0  0  0  0  0  0  0  0
   35.0660   39.1560   28.3490 C   0  0  0  0  0  0  0  0  0  0  0  0
   31.9530   38.6890   26.3170 C   0  0  0  0  0  0  0  0  0  0  0  0
   33.7870   34.9880   23.6560 C   0  0  0  0  0  0  0  0  0  0  0  0
   37.9610   35.9290   19.4430 F   0  0  0  0  0  0  0  0  0  0  0  0
   37.4420   36.0890   18.2330 C   0  0  0  0  0  0  0  0  0  0  0  0
   38.3340   37.1890   14.9370 F   0  0  0  0  0  0  0  0  0  0  0  0
   36.2590   36.4460   15.7280 C   0  0  0  0  0  0  0  0  0  0  0  0
   35.4750   35.9940   16.7950 C   0  0  0  0  0  0  0  0  0  0  0  0
   36.0720   35.8070   18.0450 C   0  0  0  0  0  0  0  0  0  0  0  0
   35.3240   35.1890   19.0550 O   0  0  0  0  0  0  0  0  0  0  0  0
   34.9800   35.9910   20.1420 C   0  0  0  0  0  0  0  0  0  0  0  0
   35.0090   37.3420   20.2130 C   0  0  0  0  0  0  0  0  0  0  0  0
   34.6410   37.9750   21.4500 C   0  0  0  0  0  0  0  0  0  0  0  0
   34.6130   39.3850   21.6200 C   0  0  0  0  0  0  0  0  0  0  0  0
   34.3300   39.9740   22.7920 N   0  0  0  0  0  0  0  0  0  0  0  0
   34.5160   35.1040   21.2420 C   0  0  0  0  0  0  0  0  0  0  0  0
   34.3810   33.9030   21.1660 O   0  0  0  0  0  0  0  0  0  0  0  0
   34.2180   35.7850   22.4730 N   0  0  0  0  0  0  0  0  0  0  0  0
   34.2900   37.1830   22.5840 C   0  0  0  0  0  0  0  0  0  0  0  0
   34.0060   37.7510   23.8020 N   0  0  0  0  0  0  0  0  0  0  0  0
   34.0630   39.1290   23.8880 C   0  0  0  0  0  0  0  0  0  0  0  0
   33.9010   39.7290   25.1180 N   0  0  0  0  0  0  0  0  0  0  0  0
   33.4740   38.9720   26.3380 C   0  0  0  0  0  0  0  0  0  0  0  0
   31.6130   37.3160   26.9170 C   0  0  0  0  0  0  0  0  0  0  0  0
   31.9770   37.1970   28.3000 O   0  0  0  0  0  0  0  0  0  0  0  0
   34.5940   38.1070   29.2210 O   0  0  0  0  0  0  0  0  0  0  0  0
   39.3060   36.7590   17.3280 H   0  0  0  0  0  0  0  0  0  0  0  0
   33.0310   39.9120   28.2700 H   0  0  0  0  0  0  0  0  0  0  0  0
   34.2080   40.8270   27.2830 H   0  0  0  0  0  0  0  0  0  0  0  0
   35.7710   38.6230   27.6710 H   0  0  0  0  0  0  0  0  0  0  0  0
   35.5970   39.9270   28.9560 H   0  0  0  0  0  0  0  0  0  0  0  0
   31.4090   39.4930   26.8620 H   0  0  0  0  0  0  0  0  0  0  0  0
   31.5820   38.6960   25.2620 H   0  0  0  0  0  0  0  0  0  0  0  0
   32.7110   35.2110   23.8910 H   0  0  0  0  0  0  0  0  0  0  0  0
   33.9000   33.8920   23.4470 H   0  0  0  0  0  0  0  0  0  0  0  0
   34.4110   35.2570   24.5500 H   0  0  0  0  0  0  0  0  0  0  0  0
   35.8020   36.6040   14.7490 H   0  0  0  0  0  0  0  0  0  0  0  0
   34.4070   35.8040   16.6450 H   0  0  0  0  0  0  0  0  0  0  0  0
   35.3100   37.9770   19.3770 H   0  0  0  0  0  0  0  0  0  0  0  0
   34.8190   40.0470   20.7630 H   0  0  0  0  0  0  0  0  0  0  0  0
   33.7810   40.7610   25.1620 H   0  0  0  0  0  0  0  0  0  0  0  0
   34.0270   37.9900   26.3290 H   0  0  0  0  0  0  0  0  0  0  0  0
   30.5080   37.1610   26.9310 H   0  0  0  0  0  0  0  0  0  0  0  0
   32.1320   36.5060   26.3510 H   0  0  0  0  0  0  0  0  0  0  0  0
   32.9340   37.4690   28.4120 H   0  0  0  0  0  0  0  0  0  0  0  0
   34.1730   38.5160   30.0190 H   0  0  0  0  0  0  0  0  0  0  0  0
  1  2  2  0  0  0  0
  1  8  1  0  0  0  0
  1 30  1  0  0  0  0
  2  9  1  0  0  0  0
  2 10  1  0  0  0  0
  3  4  1  0  0  0  0
  3 26  1  0  0  0  0
  3 31  1  0  0  0  0
  3 32  1  0  0  0  0
  4 29  1  0  0  0  0
  4 33  1  0  0  0  0
  4 34  1  0  0  0  0
  5 26  1  0  0  0  0
  5 27  1  0  0  0  0
  5 35  1  0  0  0  0
  5 36  1  0  0  0  0
  6 21  1  0  0  0  0
  6 37  1  0  0  0  0
  6 38  1  0  0  0  0
  6 39  1  0  0  0  0
  7  8  1  0  0  0  0
  8 12  2  0  0  0  0
 10 11  2  0  0  0  0
 10 40  1  0  0  0  0
 11 12  1  0  0  0  0
 11 41  1  0  0  0  0
 12 13  1  0  0  0  0
 13 14  1  0  0  0  0
 14 15  2  0  0  0  0
 14 19  1  0  0  0  0
 15 16  1  0  0  0  0
 15 42  1  0  0  0  0
 16 17  2  0  0  0  0
 16 22  1  0  0  0  0
 17 18  1  0  0  0  0
 17 43  1  0  0  0  0
 18 24  2  0  0  0  0
 19 20  2  0  0  0  0
 19 21  1  0  0  0  0
 21 22  1  0  0  0  0
 22 23  2  0  0  0  0
 23 24  1  0  0  0  0
 24 25  1  0  0  0  0
 25 26  1  0  0  0  0
 25 44  1  0  0  0  0
 26 45  1  0  0  0  0
 27 28  1  0  0  0  0
 27 46  1  0  0  0  0
 27 47  1  0  0  0  0
 28 48  1  0  0  0  0
 29 49  1  0  0  0  0
M  END
$$$$
