p38a_2p
 OpenBabel02232411163D
Structure written by MMmdl.
 58 61  0  0  0  0  0  0  0  0999 V2000
   36.3300   35.9580   15.9500 C   0  0  0  0  0  0  0  0  0  0  0  0
   34.5150   35.0450   21.5080 C   0  0  0  0  0  0  0  0  0  0  0  0
   35.6690   35.5130   17.0920 C   0  0  0  0  0  0  0  0  0  0  0  0
   33.9400   39.2120   23.9020 C   0  0  0  0  0  0  0  0  0  0  0  0
   34.7220   37.9080   21.5990 C   0  0  0  0  0  0  0  0  0  0  0  0
   35.1950   37.2070   20.4370 C   0  0  0  0  0  0  0  0  0  0  0  0
   37.6250   36.4580   16.1340 C   0  0  0  0  0  0  0  0  0  0  0  0
   38.2710   36.4890   17.3740 C   0  0  0  0  0  0  0  0  0  0  0  0
   37.5740   36.0650   18.5100 C   0  0  0  0  0  0  0  0  0  0  0  0
   34.2180   37.1930   22.7240 C   0  0  0  0  0  0  0  0  0  0  0  0
   34.7410   39.3270   21.6960 C   0  0  0  0  0  0  0  0  0  0  0  0
   35.1260   35.8560   20.4210 C   0  0  0  0  0  0  0  0  0  0  0  0
   36.2720   35.5760   18.3650 C   0  0  0  0  0  0  0  0  0  0  0  0
   34.4510   34.9970   17.0040 F   0  0  0  0  0  0  0  0  0  0  0  0
   35.5480   34.9920   19.4120 O   0  0  0  0  0  0  0  0  0  0  0  0
   34.3700   39.9870   22.7980 N   0  0  0  0  0  0  0  0  0  0  0  0
   34.3560   33.8440   21.4710 O   0  0  0  0  0  0  0  0  0  0  0  0
   34.1160   35.7880   22.6760 N   0  0  0  0  0  0  0  0  0  0  0  0
   33.8350   37.8360   23.8760 N   0  0  0  0  0  0  0  0  0  0  0  0
   33.6200   39.9250   25.0280 N   0  0  0  0  0  0  0  0  0  0  0  0
   35.8560   35.9430   14.9650 H   0  0  0  0  0  0  0  0  0  0  0  0
   35.6070   37.7940   19.6120 H   0  0  0  0  0  0  0  0  0  0  0  0
   39.2930   36.8660   17.4610 H   0  0  0  0  0  0  0  0  0  0  0  0
   38.0420   36.1370   19.4950 H   0  0  0  0  0  0  0  0  0  0  0  0
   35.0660   39.9280   20.8310 H   0  0  0  0  0  0  0  0  0  0  0  0
   33.7240   40.9600   25.0070 H   0  0  0  0  0  0  0  0  0  0  0  0
   38.2580   36.9590   15.0750 F   0  0  0  0  0  0  0  0  0  0  0  0
   33.6020   38.0740   28.4010 C   0  0  0  0  0  0  0  0  0  0  0  0
   34.1600   38.5100   27.0400 C   0  0  0  0  0  0  0  0  0  0  0  0
   33.1230   39.4050   26.3360 C   0  0  0  0  0  0  0  0  0  0  0  0
   31.7770   38.6670   26.2110 C   0  0  0  0  0  0  0  0  0  0  0  0
   31.3220   38.2000   27.6010 C   0  0  0  0  0  0  0  0  0  0  0  0
   32.3280   37.4060   28.2690 O   0  0  0  0  0  0  0  0  0  0  0  0
   33.4840   38.9500   29.0810 H   0  0  0  0  0  0  0  0  0  0  0  0
   34.2380   37.2810   28.8610 H   0  0  0  0  0  0  0  0  0  0  0  0
   34.3750   37.6100   26.4140 H   0  0  0  0  0  0  0  0  0  0  0  0
   35.1130   39.0730   27.1870 H   0  0  0  0  0  0  0  0  0  0  0  0
   32.9670   40.3400   26.9560 H   0  0  0  0  0  0  0  0  0  0  0  0
   31.0070   39.3450   25.7730 H   0  0  0  0  0  0  0  0  0  0  0  0
   31.8880   37.7850   25.5340 H   0  0  0  0  0  0  0  0  0  0  0  0
   31.0660   39.0690   28.2480 H   0  0  0  0  0  0  0  0  0  0  0  0
   30.4710   37.4850   27.5210 H   0  0  0  0  0  0  0  0  0  0  0  0
   33.4720   35.0460   23.8120 C   0  0  0  0  0  0  0  0  0  0  0  0
   33.9340   34.0240   23.8580 H   0  0  0  0  0  0  0  0  0  0  0  0
   33.6870   35.5950   24.7700 H   0  0  0  0  0  0  0  0  0  0  0  0
   31.9500   34.9480   23.5940 C   0  0  0  0  0  0  0  0  0  0  0  0
   31.5810   35.9510   23.2430 H   0  0  0  0  0  0  0  0  0  0  0  0
   31.7260   34.2120   22.7830 H   0  0  0  0  0  0  0  0  0  0  0  0
   31.1480   34.6110   24.8540 C   0  0  0  0  0  0  0  0  0  0  0  0
   30.0610   34.7540   24.5770 H   0  0  0  0  0  0  0  0  0  0  0  0
   31.3590   35.3990   25.6280 H   0  0  0  0  0  0  0  0  0  0  0  0
   31.3590   33.0150   25.5610 S   0  0  0  0  0  0  0  0  0  0  0  0
   30.1610   32.6710   26.3710 O   0  0  0  0  0  0  0  0  0  0  0  0
   32.5740   32.9740   26.4040 O   0  0  0  0  0  0  0  0  0  0  0  0
   31.4920   31.8880   24.2460 C   0  0  0  0  0  0  0  0  0  0  0  0
   32.5170   31.8560   23.7990 H   0  0  0  0  0  0  0  0  0  0  0  0
   31.2650   30.8370   24.5690 H   0  0  0  0  0  0  0  0  0  0  0  0
   30.7720   32.1190   23.4180 H   0  0  0  0  0  0  0  0  0  0  0  0
  1  3  2  0  0  0  0
  1  7  1  0  0  0  0
  1 21  1  0  0  0  0
  2 12  1  0  0  0  0
  2 17  2  0  0  0  0
  2 18  1  0  0  0  0
  3 13  1  0  0  0  0
  3 14  1  0  0  0  0
  4 16  2  0  0  0  0
  4 19  1  0  0  0  0
  4 20  1  0  0  0  0
  5  6  1  0  0  0  0
  5 10  1  0  0  0  0
  5 11  2  0  0  0  0
  6 12  2  0  0  0  0
  6 22  1  0  0  0  0
  7  8  2  0  0  0  0
  7 27  1  0  0  0  0
  8  9  1  0  0  0  0
  8 23  1  0  0  0  0
  9 13  2  0  0  0  0
  9 24  1  0  0  0  0
 10 18  1  0  0  0  0
 10 19  2  0  0  0  0
 11 16  1  0  0  0  0
 11 25  1  0  0  0  0
 12 15  1  0  0  0  0
 13 15  1  0  0  0  0
 18 43  1  0  0  0  0
 20 26  1  0  0  0  0
 20 30  1  0  0  0  0
 28 29  1  0  0  0  0
 28 33  1  0  0  0  0
 28 34  1  0  0  0  0
 28 35  1  0  0  0  0
 29 30  1  0  0  0  0
 29 36  1  0  0  0  0
 29 37  1  0  0  0  0
 30 31  1  0  0  0  0
 30 38  1  0  0  0  0
 31 32  1  0  0  0  0
 31 39  1  0  0  0  0
 31 40  1  0  0  0  0
 32 33  1  0  0  0  0
 32 41  1  0  0  0  0
 32 42  1  0  0  0  0
 43 44  1  0  0  0  0
 43 45  1  0  0  0  0
 43 46  1  0  0  0  0
 46 47  1  0  0  0  0
 46 48  1  0  0  0  0
 46 49  1  0  0  0  0
 49 50  1  0  0  0  0
 49 51  1  0  0  0  0
 49 52  1  0  0  0  0
 52 53  2  0  0  0  0
 52 54  2  0  0  0  0
 52 55  1  0  0  0  0
 55 56  1  0  0  0  0
 55 57  1  0  0  0  0
 55 58  1  0  0  0  0
M  END
$$$$
