CAT-17f
 OpenBabel02232411143D
Structure written by MMmdl.
 43 46  0  0  1  0  0  0  0  0999 V2000
   11.6140   -2.3900    1.2700 C   0  0  0  0  0  0  0  0  0  0  0  0
   12.9600   -2.4060    0.6590 N   0  0  0  0  0  0  0  0  0  0  0  0
   14.1500   -2.3770    1.3810 C   0  0  0  0  0  0  0  0  0  0  0  0
   14.2970   -2.4420    2.7330 N   0  0  0  0  0  0  0  0  0  0  0  0
   15.2400   -2.3310    0.5010 N   0  3  0  0  0  0  0  0  0  0  0  0
   14.7920   -2.6850   -0.8970 C   0  0  1  0  0  0  0  0  0  0  0  0
   15.3730   -1.6720   -1.8600 C   0  0  0  0  0  0  0  0  0  0  0  0
   16.2700   -2.0470   -2.8680 C   0  0  0  0  0  0  0  0  0  0  0  0
   16.7340   -1.0830   -3.7690 C   0  0  0  0  0  0  0  0  0  0  0  0
   16.3330    0.2510   -3.6590 C   0  0  0  0  0  0  0  0  0  0  0  0
   15.4800    0.6410   -2.6130 C   0  0  0  0  0  0  0  0  0  0  0  0
   15.0850    2.0470   -2.4080 C   0  0  0  0  0  0  0  0  0  0  0  0
   14.5210    2.8260   -3.4410 C   0  0  0  0  0  0  0  0  0  0  0  0
   14.0500    4.0820   -3.2280 N   0  0  0  0  0  0  0  0  0  0  0  0
   14.1260    4.6110   -1.9820 C   0  0  0  0  0  0  0  0  0  0  0  0
   14.7260    3.9120   -0.9070 C   0  0  0  0  0  0  0  0  0  0  0  0
   14.8070    4.4780    0.4020 C   0  0  0  0  0  0  0  0  0  0  0  0
   14.8700    4.9250    1.4670 N   0  0  0  0  0  0  0  0  0  0  0  0
   15.2210    2.6200   -1.1350 C   0  0  0  0  0  0  0  0  0  0  0  0
   14.9920   -0.3300   -1.7250 C   0  0  0  0  0  0  0  0  0  0  0  0
   15.0250   -4.1460   -1.2470 C   0  0  0  0  0  0  0  0  0  0  0  0
   16.2320   -4.8970   -0.7130 C   0  0  0  0  0  0  0  0  0  0  0  0
   14.8540   -5.2350   -0.1920 C   0  0  0  0  0  0  0  0  0  0  0  0
   13.2370   -2.5250   -0.7890 C   0  0  0  0  0  0  0  0  0  0  0  0
   12.3710   -2.5070   -1.6010 O   0  0  0  0  0  0  0  0  0  0  0  0
   11.6660   -2.6670    2.3560 H   0  0  0  0  0  0  0  0  0  0  0  0
   11.1720   -1.3640    1.1650 H   0  0  0  0  0  0  0  0  0  0  0  0
   10.9640   -3.1420    0.7450 H   0  0  0  0  0  0  0  0  0  0  0  0
   13.5740   -2.0540    3.3880 H   0  0  0  0  0  0  0  0  0  0  0  0
   16.1760   -2.6610    0.8650 H   0  0  0  0  0  0  0  0  0  0  0  0
   16.6090   -3.0810   -2.9480 H   0  0  0  0  0  0  0  0  0  0  0  0
   17.4270   -1.3750   -4.5650 H   0  0  0  0  0  0  0  0  0  0  0  0
   16.6910    0.9870   -4.3840 H   0  0  0  0  0  0  0  0  0  0  0  0
   14.4320    2.4260   -4.4650 H   0  0  0  0  0  0  0  0  0  0  0  0
   13.6860    5.6130   -1.8410 H   0  0  0  0  0  0  0  0  0  0  0  0
   15.7000    2.0550   -0.3320 H   0  0  0  0  0  0  0  0  0  0  0  0
   14.3190   -0.0380   -0.9180 H   0  0  0  0  0  0  0  0  0  0  0  0
   14.6920   -4.3780   -2.2750 H   0  0  0  0  0  0  0  0  0  0  0  0
   16.7590   -5.5830   -1.3750 H   0  0  0  0  0  0  0  0  0  0  0  0
   16.9400   -4.3770   -0.0650 H   0  0  0  0  0  0  0  0  0  0  0  0
   14.5970   -4.9550    0.8370 H   0  0  0  0  0  0  0  0  0  0  0  0
   14.3720   -6.1750   -0.4920 H   0  0  0  0  0  0  0  0  0  0  0  0
   15.2750   -2.3730    3.1350 H   0  0  0  0  0  0  0  0  0  0  0  0
  1  2  1  0  0  0  0
  1 26  1  0  0  0  0
  1 27  1  0  0  0  0
  1 28  1  0  0  0  0
  2  3  1  0  0  0  0
  2 24  1  0  0  0  0
  3  4  1  0  0  0  0
  3  5  2  0  0  0  0
  4 29  1  0  0  0  0
  4 43  1  0  0  0  0
  5  6  1  0  0  0  0
  5 30  1  0  0  0  0
  6  7  1  6  0  0  0
  6 21  1  0  0  0  0
  6 24  1  0  0  0  0
  7  8  2  0  0  0  0
  7 20  1  0  0  0  0
  8  9  1  0  0  0  0
  8 31  1  0  0  0  0
  9 10  2  0  0  0  0
  9 32  1  0  0  0  0
 10 11  1  0  0  0  0
 10 33  1  0  0  0  0
 11 12  1  0  0  0  0
 11 20  2  0  0  0  0
 12 13  2  0  0  0  0
 12 19  1  0  0  0  0
 13 14  1  0  0  0  0
 13 34  1  0  0  0  0
 14 15  2  0  0  0  0
 15 16  1  0  0  0  0
 15 35  1  0  0  0  0
 16 17  1  0  0  0  0
 16 19  2  0  0  0  0
 17 18  3  0  0  0  0
 19 36  1  0  0  0  0
 20 37  1  0  0  0  0
 21 22  1  0  0  0  0
 21 23  1  0  0  0  0
 21 38  1  0  0  0  0
 22 23  1  0  0  0  0
 22 39  1  0  0  0  0
 22 40  1  0  0  0  0
 23 41  1  0  0  0  0
 23 42  1  0  0  0  0
 24 25  2  0  0  0  0
M  CHG  1   5   1
M  END
$$$$
