p38a_3flq
 OpenBabel02232411163D
Structure written by MMmdl.
 47 49  0  0  1  0  0  0  0  0999 V2000
   33.6670   39.1420   23.9090 C   0  0  0  0  0  0  0  0  0  0  0  0
   34.6300   37.9160   21.6240 C   0  0  0  0  0  0  0  0  0  0  0  0
   35.1710   37.2370   20.4740 C   0  0  0  0  0  0  0  0  0  0  0  0
   33.9820   37.1760   22.6560 C   0  0  0  0  0  0  0  0  0  0  0  0
   35.0500   35.8920   20.3990 C   0  0  0  0  0  0  0  0  0  0  0  0
   32.1910   39.4970   26.0130 C   0  0  1  0  0  0  0  0  0  0  0  0
   31.6910   38.0600   25.9750 C   0  0  0  0  0  0  0  0  0  0  0  0
   35.3760   39.7210   27.4080 C   0  0  0  0  0  0  0  0  0  0  0  0
   33.8270   35.7870   22.5400 N   0  0  0  0  0  0  0  0  0  0  0  0
   32.5830   39.9530   27.4370 C   0  0  0  0  0  0  0  0  0  0  0  0
   38.2810   36.9530   15.0880 F   0  0  0  0  0  0  0  0  0  0  0  0
   37.6340   36.4650   16.1440 C   0  0  0  0  0  0  0  0  0  0  0  0
   38.2670   36.5000   17.3890 C   0  0  0  0  0  0  0  0  0  0  0  0
   37.5550   36.0920   18.5230 C   0  0  0  0  0  0  0  0  0  0  0  0
   36.3360   35.9740   15.9500 C   0  0  0  0  0  0  0  0  0  0  0  0
   35.6600   35.5440   17.0880 C   0  0  0  0  0  0  0  0  0  0  0  0
   34.4390   35.0370   16.9940 F   0  0  0  0  0  0  0  0  0  0  0  0
   36.2510   35.6150   18.3660 C   0  0  0  0  0  0  0  0  0  0  0  0
   35.5110   35.0350   19.4060 O   0  0  0  0  0  0  0  0  0  0  0  0
   34.3370   35.0580   21.4090 C   0  0  0  0  0  0  0  0  0  0  0  0
   34.1670   33.8620   21.3320 O   0  0  0  0  0  0  0  0  0  0  0  0
   34.7140   39.3200   21.8070 C   0  0  0  0  0  0  0  0  0  0  0  0
   34.2550   39.9390   22.9080 N   0  0  0  0  0  0  0  0  0  0  0  0
   33.4990   37.7860   23.7920 N   0  0  0  0  0  0  0  0  0  0  0  0
   33.1060   35.0490   23.6160 C   0  0  0  0  0  0  0  0  0  0  0  0
   33.3530   39.8020   25.0970 N   0  0  0  0  0  0  0  0  0  0  0  0
   33.9500   39.1760   28.2370 S   0  0  0  0  0  0  0  0  0  0  0  0
   33.9910   39.6340   29.6540 O   0  0  0  0  0  0  0  0  0  0  0  0
   33.8540   37.7030   28.1970 O   0  0  0  0  0  0  0  0  0  0  0  0
   35.6670   37.8400   19.7090 H   0  0  0  0  0  0  0  0  0  0  0  0
   31.3420   40.1710   25.6770 H   0  0  0  0  0  0  0  0  0  0  0  0
   31.2360   37.8300   24.9840 H   0  0  0  0  0  0  0  0  0  0  0  0
   32.5180   37.3320   26.1620 H   0  0  0  0  0  0  0  0  0  0  0  0
   30.9040   37.9190   26.7520 H   0  0  0  0  0  0  0  0  0  0  0  0
   36.3050   39.5770   28.0170 H   0  0  0  0  0  0  0  0  0  0  0  0
   35.5220   39.1930   26.4300 H   0  0  0  0  0  0  0  0  0  0  0  0
   35.3230   40.8200   27.1680 H   0  0  0  0  0  0  0  0  0  0  0  0
   32.7710   41.0650   27.4110 H   0  0  0  0  0  0  0  0  0  0  0  0
   31.6680   39.8120   28.0780 H   0  0  0  0  0  0  0  0  0  0  0  0
   39.2920   36.8690   17.4840 H   0  0  0  0  0  0  0  0  0  0  0  0
   38.0150   36.1680   19.5110 H   0  0  0  0  0  0  0  0  0  0  0  0
   35.8740   35.9550   14.9590 H   0  0  0  0  0  0  0  0  0  0  0  0
   35.1610   39.9550   21.0250 H   0  0  0  0  0  0  0  0  0  0  0  0
   33.0570   33.9560   23.3720 H   0  0  0  0  0  0  0  0  0  0  0  0
   33.6390   35.1880   24.5950 H   0  0  0  0  0  0  0  0  0  0  0  0
   32.0630   35.4550   23.7200 H   0  0  0  0  0  0  0  0  0  0  0  0
   33.5510   40.8320   25.0880 H   0  0  0  0  0  0  0  0  0  0  0  0
  1 23  2  0  0  0  0
  1 24  1  0  0  0  0
  1 26  1  0  0  0  0
  2  3  1  0  0  0  0
  2  4  1  0  0  0  0
  2 22  2  0  0  0  0
  3  5  2  0  0  0  0
  3 30  1  0  0  0  0
  4  9  1  0  0  0  0
  4 24  2  0  0  0  0
  5 19  1  0  0  0  0
  5 20  1  0  0  0  0
  6  7  1  0  0  0  0
  6 10  1  0  0  0  0
  6 26  1  0  0  0  0
  6 31  1  6  0  0  0
  7 32  1  0  0  0  0
  7 33  1  0  0  0  0
  7 34  1  0  0  0  0
  8 27  1  0  0  0  0
  8 35  1  0  0  0  0
  8 36  1  0  0  0  0
  8 37  1  0  0  0  0
  9 20  1  0  0  0  0
  9 25  1  0  0  0  0
 10 27  1  0  0  0  0
 10 38  1  0  0  0  0
 10 39  1  0  0  0  0
 11 12  1  0  0  0  0
 12 13  2  0  0  0  0
 12 15  1  0  0  0  0
 13 14  1  0  0  0  0
 13 40  1  0  0  0  0
 14 18  2  0  0  0  0
 14 41  1  0  0  0  0
 15 16  2  0  0  0  0
 15 42  1  0  0  0  0
 16 17  1  0  0  0  0
 16 18  1  0  0  0  0
 18 19  1  0  0  0  0
 20 21  2  0  0  0  0
 22 23  1  0  0  0  0
 22 43  1  0  0  0  0
 25 44  1  0  0  0  0
 25 45  1  0  0  0  0
 25 46  1  0  0  0  0
 26 47  1  0  0  0  0
 27 28  2  0  0  0  0
 27 29  2  0  0  0  0
M  END
$$$$
