CAT-13f
 OpenBabel02232411143D
Structure written by MMmdl.
 49 52  0  0  1  0  0  0  0  0999 V2000
   11.6410   -1.8830    1.1050 C   0  0  0  0  0  0  0  0  0  0  0  0
   12.9790   -1.6830    0.5050 N   0  0  0  0  0  0  0  0  0  0  0  0
   14.1790   -1.9610    1.1710 C   0  0  0  0  0  0  0  0  0  0  0  0
   14.3390   -2.1960    2.5040 N   0  0  0  0  0  0  0  0  0  0  0  0
   15.2410   -1.9470    0.2580 N   0  3  0  0  0  0  0  0  0  0  0  0
   14.7080   -2.0840   -1.1540 C   0  0  1  0  0  0  0  0  0  0  0  0
   15.3400   -1.0710   -2.0910 C   0  0  0  0  0  0  0  0  0  0  0  0
   15.9860   -1.4550   -3.2740 C   0  0  0  0  0  0  0  0  0  0  0  0
   16.4350   -0.4860   -4.1750 C   0  0  0  0  0  0  0  0  0  0  0  0
   16.2250    0.8690   -3.9220 C   0  0  0  0  0  0  0  0  0  0  0  0
   15.5950    1.2680   -2.7310 C   0  0  0  0  0  0  0  0  0  0  0  0
   15.2950    2.6910   -2.4640 C   0  0  0  0  0  0  0  0  0  0  0  0
   15.4980    3.2370   -1.1880 C   0  0  0  0  0  0  0  0  0  0  0  0
   15.0670    4.5350   -0.8990 C   0  0  0  0  0  0  0  0  0  0  0  0
   14.4690    5.3150   -1.8930 C   0  0  0  0  0  0  0  0  0  0  0  0
   14.3490    4.7870   -3.1810 C   0  0  0  0  0  0  0  0  0  0  0  0
   13.6910    5.7620   -4.4340 Cl  0  0  0  0  0  0  0  0  0  0  0  0
   14.7360    3.4810   -3.4830 C   0  0  0  0  0  0  0  0  0  0  0  0
   15.1780    0.2950   -1.8100 C   0  0  0  0  0  0  0  0  0  0  0  0
   14.7600   -3.5540   -1.6600 C   0  0  0  0  0  0  0  0  0  0  0  0
   16.2010   -4.1040   -1.5800 C   0  0  0  0  0  0  0  0  0  0  0  0
   16.2250   -5.1660   -0.4660 C   0  0  0  0  0  0  0  0  0  0  0  0
   14.8260   -5.1970    0.1770 C   0  0  0  0  0  0  0  0  0  0  0  0
   13.8890   -4.5370   -0.8450 C   0  0  0  0  0  0  0  0  0  0  0  0
   13.2050   -1.7010   -0.9590 C   0  0  0  0  0  0  0  0  0  0  0  0
   12.3420   -1.4340   -1.7310 O   0  0  0  0  0  0  0  0  0  0  0  0
   11.0390   -0.9460    0.9550 H   0  0  0  0  0  0  0  0  0  0  0  0
   11.1250   -2.7510    0.6110 H   0  0  0  0  0  0  0  0  0  0  0  0
   11.7190   -2.1000    2.2000 H   0  0  0  0  0  0  0  0  0  0  0  0
   13.6520   -1.8590    3.2220 H   0  0  0  0  0  0  0  0  0  0  0  0
   16.1330   -2.4280    0.5610 H   0  0  0  0  0  0  0  0  0  0  0  0
   16.1470   -2.5020   -3.5280 H   0  0  0  0  0  0  0  0  0  0  0  0
   16.9470   -0.8010   -5.0910 H   0  0  0  0  0  0  0  0  0  0  0  0
   16.5510    1.6070   -4.6600 H   0  0  0  0  0  0  0  0  0  0  0  0
   15.9760    2.6390   -0.4080 H   0  0  0  0  0  0  0  0  0  0  0  0
   15.1840    4.9240    0.1170 H   0  0  0  0  0  0  0  0  0  0  0  0
   14.0830    6.3070   -1.6560 H   0  0  0  0  0  0  0  0  0  0  0  0
   14.5920    3.0720   -4.4880 H   0  0  0  0  0  0  0  0  0  0  0  0
   14.7120    0.5950   -0.8720 H   0  0  0  0  0  0  0  0  0  0  0  0
   14.3940   -3.5560   -2.7170 H   0  0  0  0  0  0  0  0  0  0  0  0
   16.4950   -4.5520   -2.5490 H   0  0  0  0  0  0  0  0  0  0  0  0
   16.9320   -3.2990   -1.3360 H   0  0  0  0  0  0  0  0  0  0  0  0
   16.4820   -6.1640   -0.8640 H   0  0  0  0  0  0  0  0  0  0  0  0
   16.9970   -4.8650    0.2630 H   0  0  0  0  0  0  0  0  0  0  0  0
   14.4990   -6.2370    0.3970 H   0  0  0  0  0  0  0  0  0  0  0  0
   14.8280   -4.6160    1.1270 H   0  0  0  0  0  0  0  0  0  0  0  0
   13.0210   -4.0750   -0.3410 H   0  0  0  0  0  0  0  0  0  0  0  0
   13.4990   -5.3140   -1.5420 H   0  0  0  0  0  0  0  0  0  0  0  0
   15.3190   -2.2920    2.8950 H   0  0  0  0  0  0  0  0  0  0  0  0
  1  2  1  0  0  0  0
  1 27  1  0  0  0  0
  1 28  1  0  0  0  0
  1 29  1  0  0  0  0
  2  3  1  0  0  0  0
  2 25  1  0  0  0  0
  3  4  1  0  0  0  0
  3  5  2  0  0  0  0
  4 30  1  0  0  0  0
  4 49  1  0  0  0  0
  5  6  1  0  0  0  0
  5 31  1  0  0  0  0
  6  7  1  6  0  0  0
  6 20  1  0  0  0  0
  6 25  1  0  0  0  0
  7  8  2  0  0  0  0
  7 19  1  0  0  0  0
  8  9  1  0  0  0  0
  8 32  1  0  0  0  0
  9 10  2  0  0  0  0
  9 33  1  0  0  0  0
 10 11  1  0  0  0  0
 10 34  1  0  0  0  0
 11 12  1  0  0  0  0
 11 19  2  0  0  0  0
 12 13  2  0  0  0  0
 12 18  1  0  0  0  0
 13 14  1  0  0  0  0
 13 35  1  0  0  0  0
 14 15  2  0  0  0  0
 14 36  1  0  0  0  0
 15 16  1  0  0  0  0
 15 37  1  0  0  0  0
 16 17  1  0  0  0  0
 16 18  2  0  0  0  0
 18 38  1  0  0  0  0
 19 39  1  0  0  0  0
 20 21  1  0  0  0  0
 20 24  1  0  0  0  0
 20 40  1  0  0  0  0
 21 22  1  0  0  0  0
 21 41  1  0  0  0  0
 21 42  1  0  0  0  0
 22 23  1  0  0  0  0
 22 43  1  0  0  0  0
 22 44  1  0  0  0  0
 23 24  1  0  0  0  0
 23 45  1  0  0  0  0
 23 46  1  0  0  0  0
 24 47  1  0  0  0  0
 24 48  1  0  0  0  0
 25 26  2  0  0  0  0
M  CHG  1   5   1
M  END
$$$$
