23467
                    3D
 Schrodinger Suite 2022-3.
 31 32  0  0  1  0  0  0  0  0999 V2000
   43.8350   13.9980   16.8020 S   0  0  0  0  0  0  0  0  0  0  0  0
   43.6580   15.2740   15.6160 C   0  0  0  0  0  0  0  0  0  0  0  0
   42.7660   14.8730   14.6550 C   0  0  0  0  0  0  0  0  0  0  0  0
   42.1820   13.5730   14.9190 C   0  0  0  0  0  0  0  0  0  0  0  0
   42.6550   12.9580   16.0450 C   0  0  0  0  0  0  0  0  0  0  0  0
   44.4290   16.5790   15.8090 C   0  0  0  0  0  0  0  0  0  0  0  0
   45.3070   16.5380   16.7000 O   0  0  0  0  0  0  0  0  0  0  0  0
   44.1460   17.5620   15.1240 O   0  5  0  0  0  0  0  0  0  0  0  0
   42.3100   11.6670   16.6060 C   0  0  0  0  0  0  0  0  0  0  0  0
   40.9680   11.2780   16.6890 C   0  0  0  0  0  0  0  0  0  0  0  0
   40.6530    9.9880   17.1570 C   0  0  0  0  0  0  0  0  0  0  0  0
   41.6330    9.0950   17.5850 C   0  0  0  0  0  0  0  0  0  0  0  0
   42.9720    9.5160   17.5350 C   0  0  0  0  0  0  0  0  0  0  0  0
   43.3140   10.7740   17.0530 C   0  0  0  0  0  0  0  0  0  0  0  0
   40.8750   12.7850   13.7820 Br  0  0  0  0  0  0  0  0  0  0  0  0
   42.5680   15.5670   13.5040 O   0  0  0  0  0  0  0  0  0  0  0  0
   41.2160   16.1060   13.3390 C   0  0  0  0  0  0  0  0  0  0  0  0
   41.4730   17.5390   12.7750 C   0  0  0  0  0  0  0  0  0  0  0  0
   40.4800   18.3000   12.8070 O   0  5  0  0  0  0  0  0  0  0  0  0
   42.5870   17.8200   12.3180 O   0  0  0  0  0  0  0  0  0  0  0  0
   39.2830    9.7520   17.1470 O   0  0  0  0  0  0  0  0  0  0  0  0
   38.8390    8.4170   17.4760 C   0  0  0  0  0  0  0  0  0  0  0  0
   40.1540   11.9410   16.3920 H   0  0  0  0  0  0  0  0  0  0  0  0
   41.3970    8.0980   17.9510 H   0  0  0  0  0  0  0  0  0  0  0  0
   43.7440    8.8260   17.8840 H   0  0  0  0  0  0  0  0  0  0  0  0
   44.3680   11.0550   17.0150 H   0  0  0  0  0  0  0  0  0  0  0  0
   40.6530   16.1200   14.2960 H   0  0  0  0  0  0  0  0  0  0  0  0
   40.7080   15.4510   12.6020 H   0  0  0  0  0  0  0  0  0  0  0  0
   39.2740    7.6760   16.7700 H   0  0  0  0  0  0  0  0  0  0  0  0
   39.0990    8.1660   18.5280 H   0  0  0  0  0  0  0  0  0  0  0  0
   37.7350    8.4830   17.3490 H   0  0  0  0  0  0  0  0  0  0  0  0
  1  2  1  0  0  0  0
  1  5  1  0  0  0  0
  2  3  2  0  0  0  0
  2  6  1  0  0  0  0
  3  4  1  0  0  0  0
  3 16  1  0  0  0  0
  4  5  2  0  0  0  0
  4 15  1  0  0  0  0
  5  9  1  0  0  0  0
  6  7  2  0  0  0  0
  6  8  1  0  0  0  0
  9 10  1  0  0  0  0
  9 14  2  0  0  0  0
 10 11  2  0  0  0  0
 10 23  1  0  0  0  0
 11 12  1  0  0  0  0
 11 21  1  0  0  0  0
 12 13  2  0  0  0  0
 12 24  1  0  0  0  0
 13 14  1  0  0  0  0
 13 25  1  0  0  0  0
 14 26  1  0  0  0  0
 16 17  1  0  0  0  0
 17 18  1  0  0  0  0
 17 27  1  0  0  0  0
 17 28  1  0  0  0  0
 18 19  1  0  0  0  0
 18 20  2  0  0  0  0
 21 22  1  0  0  0  0
 22 29  1  0  0  0  0
 22 30  1  0  0  0  0
 22 31  1  0  0  0  0
M  CHG  2   8  -1  19  -1
M  END
$$$$
