18628-1
                    3D
 Schrodinger Suite 2022-3.
 41 42  0  0  1  0  0  0  0  0999 V2000
   24.5160    2.3500   32.2160 C   0  0  0  0  0  0  0  0  0  0  0  0
   23.3780    2.7600   31.5240 C   0  0  0  0  0  0  0  0  0  0  0  0
   23.4230    3.8420   30.6240 C   0  0  0  0  0  0  0  0  0  0  0  0
   24.6550    4.4790   30.3740 C   0  0  0  0  0  0  0  0  0  0  0  0
   25.7950    4.0570   31.0890 C   0  0  0  0  0  0  0  0  0  0  0  0
   25.7300    3.0130   32.0070 C   0  0  0  0  0  0  0  0  0  0  0  0
   22.1260    4.2570   29.9810 C   0  0  0  0  0  0  0  0  0  0  0  0
   21.3220    5.2030   30.8620 C   0  0  0  0  0  0  0  0  0  0  0  0
   21.9030    6.4910   30.9760 N   0  0  0  0  0  0  0  0  0  0  0  0
   21.3140    7.6500   31.5330 C   0  0  0  0  0  0  0  0  0  0  0  0
   20.2630    4.9220   31.3790 O   0  0  0  0  0  0  0  0  0  0  0  0
   22.0520    8.7820   31.2210 N   0  0  0  0  0  0  0  0  0  0  0  0
   21.5740    9.9770   31.6350 C   0  0  0  0  0  0  0  0  0  0  0  0
   20.3830   10.1470   32.4020 C   0  0  0  0  0  0  0  0  0  0  0  0
   19.6610    8.9560   32.7350 C   0  0  0  0  0  0  0  0  0  0  0  0
   20.1430    7.6980   32.2820 C   0  0  0  0  0  0  0  0  0  0  0  0
   18.5030    9.0140   33.4680 N   0  0  0  0  0  0  0  0  0  0  0  0
   19.9760   11.4510   32.7550 C   0  0  0  0  0  0  0  0  0  0  0  0
   22.2270   11.1120   31.2990 O   0  0  0  0  0  0  0  0  0  0  0  0
   23.5060   11.0250   30.5620 C   0  0  0  0  0  0  0  0  0  0  0  0
   23.2560   10.7950   29.0870 C   0  0  0  0  0  0  0  0  0  0  0  0
   19.6940   12.5480   33.0050 N   0  0  0  0  0  0  0  0  0  0  0  0
   24.4640    1.5120   32.9170 H   0  0  0  0  0  0  0  0  0  0  0  0
   24.8610    5.5810   29.3820 C   0  0  0  0  0  0  0  0  0  0  0  0
   19.5830    6.7910   32.5140 H   0  0  0  0  0  0  0  0  0  0  0  0
   21.5010    3.3430   29.7900 H   0  0  0  0  0  0  0  0  0  0  0  0
   22.3010    4.7500   28.9930 H   0  0  0  0  0  0  0  0  0  0  0  0
   22.8320    6.6520   30.5430 H   0  0  0  0  0  0  0  0  0  0  0  0
   18.0040    8.1500   33.7540 H   0  0  0  0  0  0  0  0  0  0  0  0
   18.1150    9.9050   33.7770 H   0  0  0  0  0  0  0  0  0  0  0  0
   24.1440   10.2310   31.0120 H   0  0  0  0  0  0  0  0  0  0  0  0
   23.8990   12.0490   30.7690 H   0  0  0  0  0  0  0  0  0  0  0  0
   24.2150   10.9310   28.5260 H   0  0  0  0  0  0  0  0  0  0  0  0
   22.8900    9.7590   28.8930 H   0  0  0  0  0  0  0  0  0  0  0  0
   22.5140   11.5190   28.6820 H   0  0  0  0  0  0  0  0  0  0  0  0
   26.6260    2.7070   32.5540 H   0  0  0  0  0  0  0  0  0  0  0  0
   26.7520    4.5600   30.9150 H   0  0  0  0  0  0  0  0  0  0  0  0
   25.1270    6.5310   29.9170 H   0  0  0  0  0  0  0  0  0  0  0  0
   25.7320    5.3300   28.7200 H   0  0  0  0  0  0  0  0  0  0  0  0
   23.9910    5.7770   28.7250 H   0  0  0  0  0  0  0  0  0  0  0  0
   22.4430    2.2190   31.6840 H   0  0  0  0  0  0  0  0  0  0  0  0
  1  2  1  0  0  0  0
  1  6  2  0  0  0  0
  1 23  1  0  0  0  0
  2  3  2  0  0  0  0
  2 41  1  0  0  0  0
  3  4  1  0  0  0  0
  3  7  1  0  0  0  0
  4  5  2  0  0  0  0
  4 24  1  0  0  0  0
  5  6  1  0  0  0  0
  5 37  1  0  0  0  0
  6 36  1  0  0  0  0
  7  8  1  0  0  0  0
  7 26  1  0  0  0  0
  7 27  1  0  0  0  0
  8  9  1  0  0  0  0
  8 11  2  0  0  0  0
  9 10  1  0  0  0  0
  9 28  1  0  0  0  0
 10 12  1  0  0  0  0
 10 16  2  0  0  0  0
 12 13  2  0  0  0  0
 13 14  1  0  0  0  0
 13 19  1  0  0  0  0
 14 15  2  0  0  0  0
 14 18  1  0  0  0  0
 15 16  1  0  0  0  0
 15 17  1  0  0  0  0
 16 25  1  0  0  0  0
 17 29  1  0  0  0  0
 17 30  1  0  0  0  0
 18 22  3  0  0  0  0
 19 20  1  0  0  0  0
 20 21  1  0  0  0  0
 20 31  1  0  0  0  0
 20 32  1  0  0  0  0
 21 33  1  0  0  0  0
 21 34  1  0  0  0  0
 21 35  1  0  0  0  0
 24 38  1  0  0  0  0
 24 39  1  0  0  0  0
 24 40  1  0  0  0  0
M  END
$$$$
