CAT-17a
 OpenBabel02232411143D
Structure written by MMmdl.
 43 46  0  0  1  0  0  0  0  0999 V2000
   11.6690   -2.6540    1.3350 C   0  0  0  0  0  0  0  0  0  0  0  0
   12.9800   -2.4580    0.6840 N   0  0  0  0  0  0  0  0  0  0  0  0
   14.1730   -2.4470    1.4080 C   0  0  0  0  0  0  0  0  0  0  0  0
   14.3050   -2.5360    2.7630 N   0  0  0  0  0  0  0  0  0  0  0  0
   15.2610   -2.3740    0.5330 N   0  3  0  0  0  0  0  0  0  0  0  0
   14.8160   -2.6980   -0.8750 C   0  0  1  0  0  0  0  0  0  0  0  0
   15.4210   -1.6760   -1.8110 C   0  0  0  0  0  0  0  0  0  0  0  0
   16.3190   -2.0510   -2.8180 C   0  0  0  0  0  0  0  0  0  0  0  0
   16.8330   -1.0760   -3.6780 C   0  0  0  0  0  0  0  0  0  0  0  0
   16.4870    0.2680   -3.5210 C   0  0  0  0  0  0  0  0  0  0  0  0
   15.6320    0.6590   -2.4760 C   0  0  0  0  0  0  0  0  0  0  0  0
   15.3130    2.0820   -2.2240 C   0  0  0  0  0  0  0  0  0  0  0  0
   14.9580    2.9450   -3.2720 C   0  0  0  0  0  0  0  0  0  0  0  0
   14.6030    4.2640   -2.9740 C   0  0  0  0  0  0  0  0  0  0  0  0
   14.1790    5.3210   -4.2560 Cl  0  0  0  0  0  0  0  0  0  0  0  0
   14.5640    4.7470   -1.6620 C   0  0  0  0  0  0  0  0  0  0  0  0
   14.9390    3.8720   -0.6400 C   0  0  0  0  0  0  0  0  0  0  0  0
   14.8540    4.3940    0.9980 Cl  0  0  0  0  0  0  0  0  0  0  0  0
   15.3390    2.5620   -0.9030 C   0  0  0  0  0  0  0  0  0  0  0  0
   15.0810   -0.3250   -1.6420 C   0  0  0  0  0  0  0  0  0  0  0  0
   15.0380   -4.1560   -1.2450 C   0  0  0  0  0  0  0  0  0  0  0  0
   16.2340   -4.9240   -0.7110 C   0  0  0  0  0  0  0  0  0  0  0  0
   14.8490   -5.2600   -0.2090 C   0  0  0  0  0  0  0  0  0  0  0  0
   13.2610   -2.5350   -0.7660 C   0  0  0  0  0  0  0  0  0  0  0  0
   12.3990   -2.4790   -1.5810 O   0  0  0  0  0  0  0  0  0  0  0  0
   11.5690   -3.7200    1.6770 H   0  0  0  0  0  0  0  0  0  0  0  0
   11.5880   -1.9760    2.2210 H   0  0  0  0  0  0  0  0  0  0  0  0
   10.8510   -2.4100    0.6060 H   0  0  0  0  0  0  0  0  0  0  0  0
   13.5730   -2.1380    3.4030 H   0  0  0  0  0  0  0  0  0  0  0  0
   16.2030   -2.6870    0.8900 H   0  0  0  0  0  0  0  0  0  0  0  0
   16.6230   -3.0940   -2.9270 H   0  0  0  0  0  0  0  0  0  0  0  0
   17.5220   -1.3680   -4.4780 H   0  0  0  0  0  0  0  0  0  0  0  0
   16.8880    1.0130   -4.2120 H   0  0  0  0  0  0  0  0  0  0  0  0
   14.9460    2.5840   -4.3060 H   0  0  0  0  0  0  0  0  0  0  0  0
   14.2250    5.7640   -1.4420 H   0  0  0  0  0  0  0  0  0  0  0  0
   15.6600    1.9040   -0.0930 H   0  0  0  0  0  0  0  0  0  0  0  0
   14.3880   -0.0430   -0.8500 H   0  0  0  0  0  0  0  0  0  0  0  0
   14.7120   -4.3710   -2.2790 H   0  0  0  0  0  0  0  0  0  0  0  0
   16.7650   -5.6010   -1.3780 H   0  0  0  0  0  0  0  0  0  0  0  0
   16.9380   -4.4210   -0.0460 H   0  0  0  0  0  0  0  0  0  0  0  0
   14.5840   -4.9970    0.8230 H   0  0  0  0  0  0  0  0  0  0  0  0
   14.3620   -6.1910   -0.5270 H   0  0  0  0  0  0  0  0  0  0  0  0
   15.2790   -2.4380    3.1700 H   0  0  0  0  0  0  0  0  0  0  0  0
  1  2  1  0  0  0  0
  1 26  1  0  0  0  0
  1 27  1  0  0  0  0
  1 28  1  0  0  0  0
  2  3  1  0  0  0  0
  2 24  1  0  0  0  0
  3  4  1  0  0  0  0
  3  5  2  0  0  0  0
  4 29  1  0  0  0  0
  4 43  1  0  0  0  0
  5  6  1  0  0  0  0
  5 30  1  0  0  0  0
  6  7  1  6  0  0  0
  6 21  1  0  0  0  0
  6 24  1  0  0  0  0
  7  8  2  0  0  0  0
  7 20  1  0  0  0  0
  8  9  1  0  0  0  0
  8 31  1  0  0  0  0
  9 10  2  0  0  0  0
  9 32  1  0  0  0  0
 10 11  1  0  0  0  0
 10 33  1  0  0  0  0
 11 12  1  0  0  0  0
 11 20  2  0  0  0  0
 12 13  2  0  0  0  0
 12 19  1  0  0  0  0
 13 14  1  0  0  0  0
 13 34  1  0  0  0  0
 14 15  1  0  0  0  0
 14 16  2  0  0  0  0
 16 17  1  0  0  0  0
 16 35  1  0  0  0  0
 17 18  1  0  0  0  0
 17 19  2  0  0  0  0
 19 36  1  0  0  0  0
 20 37  1  0  0  0  0
 21 22  1  0  0  0  0
 21 23  1  0  0  0  0
 21 38  1  0  0  0  0
 22 23  1  0  0  0  0
 22 39  1  0  0  0  0
 22 40  1  0  0  0  0
 23 41  1  0  0  0  0
 23 42  1  0  0  0  0
 24 25  2  0  0  0  0
M  CHG  1   5   1
M  END
$$$$
