p38a_2n
 OpenBabel02232411163D
Structure written by MMmdl.
 53 56  0  0  0  0  0  0  0  0999 V2000
   38.2420   36.4920   17.2080 C   0  0  0  0  0  0  0  0  0  0  0  0
   34.6730   35.0750   21.3340 C   0  0  0  0  0  0  0  0  0  0  0  0
   37.4440   36.0450   18.2570 C   0  0  0  0  0  0  0  0  0  0  0  0
   34.1600   39.1710   23.8450 C   0  0  0  0  0  0  0  0  0  0  0  0
   34.6890   37.9470   21.4310 C   0  0  0  0  0  0  0  0  0  0  0  0
   34.9980   37.2840   20.1960 C   0  0  0  0  0  0  0  0  0  0  0  0
   37.6110   36.6450   15.9660 C   0  0  0  0  0  0  0  0  0  0  0  0
   36.2650   36.3450   15.7450 C   0  0  0  0  0  0  0  0  0  0  0  0
   35.4870   35.8860   16.8130 C   0  0  0  0  0  0  0  0  0  0  0  0
   34.4810   37.1860   22.6200 C   0  0  0  0  0  0  0  0  0  0  0  0
   34.6050   39.3620   21.5500 C   0  0  0  0  0  0  0  0  0  0  0  0
   35.0250   35.9310   20.1730 C   0  0  0  0  0  0  0  0  0  0  0  0
   36.0820   35.7270   18.0680 C   0  0  0  0  0  0  0  0  0  0  0  0
   37.9640   35.9130   19.4710 F   0  0  0  0  0  0  0  0  0  0  0  0
   35.3360   35.1150   19.0850 O   0  0  0  0  0  0  0  0  0  0  0  0
   34.3520   39.9860   22.7100 N   0  0  0  0  0  0  0  0  0  0  0  0
   34.5240   33.8690   21.2990 O   0  0  0  0  0  0  0  0  0  0  0  0
   34.5200   35.7780   22.5780 N   0  0  0  0  0  0  0  0  0  0  0  0
   34.2410   37.7920   23.8250 N   0  0  0  0  0  0  0  0  0  0  0  0
   33.8100   39.7950   25.0180 N   0  0  0  0  0  0  0  0  0  0  0  0
   39.2960   36.7510   17.3530 H   0  0  0  0  0  0  0  0  0  0  0  0
   35.2130   37.8980   19.3170 H   0  0  0  0  0  0  0  0  0  0  0  0
   35.8080   36.4810   14.7620 H   0  0  0  0  0  0  0  0  0  0  0  0
   34.4240   35.6710   16.6610 H   0  0  0  0  0  0  0  0  0  0  0  0
   34.7490   39.9990   20.6600 H   0  0  0  0  0  0  0  0  0  0  0  0
   33.8470   40.8310   25.0840 H   0  0  0  0  0  0  0  0  0  0  0  0
   38.3230   37.1390   14.9560 F   0  0  0  0  0  0  0  0  0  0  0  0
   32.5020   39.0480   28.5260 C   0  0  0  0  0  0  0  0  0  0  0  0
   32.5420   39.6740   27.1260 C   0  0  0  0  0  0  0  0  0  0  0  0
   33.7160   39.0730   26.3230 C   0  0  0  0  0  0  0  0  0  0  0  0
   35.0380   39.2200   27.1070 C   0  0  0  0  0  0  0  0  0  0  0  0
   34.8780   38.6250   28.5120 C   0  0  0  0  0  0  0  0  0  0  0  0
   33.7610   39.2120   29.2180 O   0  0  0  0  0  0  0  0  0  0  0  0
   32.2570   37.9620   28.4690 H   0  0  0  0  0  0  0  0  0  0  0  0
   31.7920   39.5920   29.1910 H   0  0  0  0  0  0  0  0  0  0  0  0
   32.6690   40.7790   27.2130 H   0  0  0  0  0  0  0  0  0  0  0  0
   31.5810   39.4700   26.5970 H   0  0  0  0  0  0  0  0  0  0  0  0
   33.5120   37.9820   26.1290 H   0  0  0  0  0  0  0  0  0  0  0  0
   35.8550   38.6810   26.5710 H   0  0  0  0  0  0  0  0  0  0  0  0
   35.3150   40.2990   27.1800 H   0  0  0  0  0  0  0  0  0  0  0  0
   34.7320   37.5210   28.4600 H   0  0  0  0  0  0  0  0  0  0  0  0
   35.7400   38.8940   29.1650 H   0  0  0  0  0  0  0  0  0  0  0  0
   34.3850   34.9940   23.8520 C   0  0  0  0  0  0  0  0  0  0  0  0
   34.8240   33.9740   23.6770 H   0  0  0  0  0  0  0  0  0  0  0  0
   34.9940   35.5140   24.6490 H   0  0  0  0  0  0  0  0  0  0  0  0
   32.9440   34.8670   24.3660 C   0  0  0  0  0  0  0  0  0  0  0  0
   32.9960   34.2910   25.3290 H   0  0  0  0  0  0  0  0  0  0  0  0
   32.5440   35.8830   24.6230 H   0  0  0  0  0  0  0  0  0  0  0  0
   31.9460   34.1870   23.4190 C   0  0  0  0  0  0  0  0  0  0  0  0
   30.9880   33.9820   23.9570 H   0  0  0  0  0  0  0  0  0  0  0  0
   31.7710   34.8150   22.5170 H   0  0  0  0  0  0  0  0  0  0  0  0
   32.3870   32.8910   22.9920 O   0  0  0  0  0  0  0  0  0  0  0  0
   33.2760   33.0100   22.5650 H   0  0  0  0  0  0  0  0  0  0  0  0
  1  3  2  0  0  0  0
  1  7  1  0  0  0  0
  1 21  1  0  0  0  0
  2 12  1  0  0  0  0
  2 17  2  0  0  0  0
  2 18  1  0  0  0  0
  3 13  1  0  0  0  0
  3 14  1  0  0  0  0
  4 16  2  0  0  0  0
  4 19  1  0  0  0  0
  4 20  1  0  0  0  0
  5  6  1  0  0  0  0
  5 10  1  0  0  0  0
  5 11  2  0  0  0  0
  6 12  2  0  0  0  0
  6 22  1  0  0  0  0
  7  8  2  0  0  0  0
  7 27  1  0  0  0  0
  8  9  1  0  0  0  0
  8 23  1  0  0  0  0
  9 13  2  0  0  0  0
  9 24  1  0  0  0  0
 10 18  1  0  0  0  0
 10 19  2  0  0  0  0
 11 16  1  0  0  0  0
 11 25  1  0  0  0  0
 12 15  1  0  0  0  0
 13 15  1  0  0  0  0
 18 43  1  0  0  0  0
 20 26  1  0  0  0  0
 20 30  1  0  0  0  0
 28 29  1  0  0  0  0
 28 33  1  0  0  0  0
 28 34  1  0  0  0  0
 28 35  1  0  0  0  0
 29 30  1  0  0  0  0
 29 36  1  0  0  0  0
 29 37  1  0  0  0  0
 30 31  1  0  0  0  0
 30 38  1  0  0  0  0
 31 32  1  0  0  0  0
 31 39  1  0  0  0  0
 31 40  1  0  0  0  0
 32 33  1  0  0  0  0
 32 41  1  0  0  0  0
 32 42  1  0  0  0  0
 43 44  1  0  0  0  0
 43 45  1  0  0  0  0
 43 46  1  0  0  0  0
 46 47  1  0  0  0  0
 46 48  1  0  0  0  0
 46 49  1  0  0  0  0
 49 50  1  0  0  0  0
 49 51  1  0  0  0  0
 49 52  1  0  0  0  0
 52 53  1  0  0  0  0
M  END
$$$$
