p38a_2aa
 OpenBabel02232411163D
Structure written by MMmdl.
 43 45  0  0  0  0  0  0  0  0999 V2000
   36.3460   35.9780   15.8960 C   0  0  0  0  0  0  0  0  0  0  0  0
   34.4890   35.0500   21.4430 C   0  0  0  0  0  0  0  0  0  0  0  0
   35.6670   35.5250   17.0240 C   0  0  0  0  0  0  0  0  0  0  0  0
   34.1040   39.1800   23.9290 C   0  0  0  0  0  0  0  0  0  0  0  0
   33.3550   39.2640   26.3590 C   0  0  0  0  0  0  0  0  0  0  0  0
   34.7730   37.9100   21.5790 C   0  0  0  0  0  0  0  0  0  0  0  0
   35.2070   37.2150   20.3970 C   0  0  0  0  0  0  0  0  0  0  0  0
   37.6380   36.4760   16.1030 C   0  0  0  0  0  0  0  0  0  0  0  0
   38.2650   36.4970   17.3520 C   0  0  0  0  0  0  0  0  0  0  0  0
   37.5510   36.0670   18.4750 C   0  0  0  0  0  0  0  0  0  0  0  0
   34.3040   37.1800   22.7110 C   0  0  0  0  0  0  0  0  0  0  0  0
   34.8000   39.3250   21.6950 C   0  0  0  0  0  0  0  0  0  0  0  0
   35.1060   35.8670   20.3610 C   0  0  0  0  0  0  0  0  0  0  0  0
   36.2500   35.5840   18.3060 C   0  0  0  0  0  0  0  0  0  0  0  0
   33.6490   35.0500   23.8260 C   0  0  0  0  0  0  0  0  0  0  0  0
   34.4500   35.0080   16.9150 F   0  0  0  0  0  0  0  0  0  0  0  0
   35.4960   35.0060   19.3380 O   0  0  0  0  0  0  0  0  0  0  0  0
   34.4770   39.9720   22.8250 N   0  0  0  0  0  0  0  0  0  0  0  0
   34.2510   33.8640   21.3750 O   0  0  0  0  0  0  0  0  0  0  0  0
   34.1650   35.7850   22.6370 N   0  0  0  0  0  0  0  0  0  0  0  0
   33.9690   37.8100   23.8860 N   0  0  0  0  0  0  0  0  0  0  0  0
   33.9190   39.8580   25.1180 N   0  0  0  0  0  0  0  0  0  0  0  0
   35.8870   35.9710   14.9040 H   0  0  0  0  0  0  0  0  0  0  0  0
   32.0070   38.5340   26.1230 C   0  0  0  0  0  0  0  0  0  0  0  0
   35.6190   37.8070   19.5760 H   0  0  0  0  0  0  0  0  0  0  0  0
   39.2870   36.8710   17.4580 H   0  0  0  0  0  0  0  0  0  0  0  0
   38.0050   36.1330   19.4670 H   0  0  0  0  0  0  0  0  0  0  0  0
   35.0870   39.9390   20.8260 H   0  0  0  0  0  0  0  0  0  0  0  0
   34.2700   35.2980   24.7300 H   0  0  0  0  0  0  0  0  0  0  0  0
   32.5870   35.3530   24.0330 H   0  0  0  0  0  0  0  0  0  0  0  0
   33.6910   33.9440   23.6500 H   0  0  0  0  0  0  0  0  0  0  0  0
   33.8620   40.8970   25.0870 H   0  0  0  0  0  0  0  0  0  0  0  0
   38.2860   36.9870   15.0580 F   0  0  0  0  0  0  0  0  0  0  0  0
   34.3920   38.3400   27.0440 C   0  0  0  0  0  0  0  0  0  0  0  0
   35.4900   39.1090   27.5550 O   0  0  0  0  0  0  0  0  0  0  0  0
   35.9080   39.6010   26.8090 H   0  0  0  0  0  0  0  0  0  0  0  0
   33.9540   37.8790   27.9620 H   0  0  0  0  0  0  0  0  0  0  0  0
   34.7790   37.5600   26.3490 H   0  0  0  0  0  0  0  0  0  0  0  0
   31.1500   38.7770   27.2480 O   0  0  0  0  0  0  0  0  0  0  0  0
   31.4420   38.9960   25.2810 H   0  0  0  0  0  0  0  0  0  0  0  0
   32.1430   37.4390   25.9710 H   0  0  0  0  0  0  0  0  0  0  0  0
   31.4130   38.1940   28.0020 H   0  0  0  0  0  0  0  0  0  0  0  0
   33.1520   40.1390   27.0490 H   0  0  0  0  0  0  0  0  0  0  0  0
  1  3  2  0  0  0  0
  1  8  1  0  0  0  0
  1 23  1  0  0  0  0
  2 13  1  0  0  0  0
  2 19  2  0  0  0  0
  2 20  1  0  0  0  0
  3 14  1  0  0  0  0
  3 16  1  0  0  0  0
  4 18  2  0  0  0  0
  4 21  1  0  0  0  0
  4 22  1  0  0  0  0
  5 22  1  0  0  0  0
  5 24  1  0  0  0  0
  5 34  1  0  0  0  0
  5 43  1  0  0  0  0
  6  7  1  0  0  0  0
  6 11  1  0  0  0  0
  6 12  2  0  0  0  0
  7 13  2  0  0  0  0
  7 25  1  0  0  0  0
  8  9  2  0  0  0  0
  8 33  1  0  0  0  0
  9 10  1  0  0  0  0
  9 26  1  0  0  0  0
 10 14  2  0  0  0  0
 10 27  1  0  0  0  0
 11 20  1  0  0  0  0
 11 21  2  0  0  0  0
 12 18  1  0  0  0  0
 12 28  1  0  0  0  0
 13 17  1  0  0  0  0
 14 17  1  0  0  0  0
 15 20  1  0  0  0  0
 15 29  1  0  0  0  0
 15 30  1  0  0  0  0
 15 31  1  0  0  0  0
 22 32  1  0  0  0  0
 24 39  1  0  0  0  0
 24 40  1  0  0  0  0
 24 41  1  0  0  0  0
 34 35  1  0  0  0  0
 34 37  1  0  0  0  0
 34 38  1  0  0  0  0
 35 36  1  0  0  0  0
 39 42  1  0  0  0  0
M  END
$$$$
