CAT-4o
 OpenBabel02232411143D
Structure written by MMmdl.
 45 48  0  0  1  0  0  0  0  0999 V2000
   11.5320   -2.6020    1.4700 C   0  0  0  0  0  0  0  0  0  0  0  0
   12.8670   -2.6810    0.8420 N   0  0  0  0  0  0  0  0  0  0  0  0
   14.0660   -2.5630    1.5400 C   0  0  0  0  0  0  0  0  0  0  0  0
   14.2450   -2.5190    2.8870 N   0  0  0  0  0  0  0  0  0  0  0  0
   15.1370   -2.5680    0.6460 N   0  3  0  0  0  0  0  0  0  0  0  0
   14.6800   -3.0950   -0.7020 C   0  0  2  0  0  0  0  0  0  0  0  0
   15.0760   -4.5600   -0.7000 C   0  0  0  0  0  0  0  0  0  0  0  0
   16.4390   -4.8850   -0.7650 C   0  0  0  0  0  0  0  0  0  0  0  0
   16.8590   -6.1980   -0.5400 C   0  0  0  0  0  0  0  0  0  0  0  0
   15.9240   -7.1960   -0.2420 C   0  0  0  0  0  0  0  0  0  0  0  0
   14.5650   -6.8730   -0.1730 C   0  0  0  0  0  0  0  0  0  0  0  0
   14.1380   -5.5650   -0.4140 C   0  0  0  0  0  0  0  0  0  0  0  0
   15.1640   -2.1560   -1.7860 C   0  0  0  0  0  0  0  0  0  0  0  0
   15.6620   -2.6280   -3.0030 C   0  0  0  0  0  0  0  0  0  0  0  0
   16.0450   -1.7060   -3.9850 C   0  0  0  0  0  0  0  0  0  0  0  0
   15.9380   -0.3320   -3.7690 C   0  0  0  0  0  0  0  0  0  0  0  0
   15.4230    0.1510   -2.5520 C   0  0  0  0  0  0  0  0  0  0  0  0
   15.2460    1.5970   -2.3150 C   0  0  0  0  0  0  0  0  0  0  0  0
   14.7390    2.4420   -3.3300 C   0  0  0  0  0  0  0  0  0  0  0  0
   14.4700    3.7580   -3.1310 N   0  0  0  0  0  0  0  0  0  0  0  0
   14.7010    4.2980   -1.9110 C   0  0  0  0  0  0  0  0  0  0  0  0
   15.2470    3.5140   -0.8730 C   0  0  0  0  0  0  0  0  0  0  0  0
   15.4830    4.0720    0.3120 F   0  0  0  0  0  0  0  0  0  0  0  0
   15.5290    2.1620   -1.0610 C   0  0  0  0  0  0  0  0  0  0  0  0
   15.0420   -0.7720   -1.5680 C   0  0  0  0  0  0  0  0  0  0  0  0
   13.1270   -2.9290   -0.5940 C   0  0  0  0  0  0  0  0  0  0  0  0
   12.2580   -2.9480   -1.4040 O   0  0  0  0  0  0  0  0  0  0  0  0
   11.5930   -2.8540    2.5620 H   0  0  0  0  0  0  0  0  0  0  0  0
   11.1220   -1.5650    1.3460 H   0  0  0  0  0  0  0  0  0  0  0  0
   10.8470   -3.3430    0.9740 H   0  0  0  0  0  0  0  0  0  0  0  0
   15.2290   -2.3950    3.2600 H   0  0  0  0  0  0  0  0  0  0  0  0
   16.0970   -2.8230    1.0050 H   0  0  0  0  0  0  0  0  0  0  0  0
   17.1720   -4.0940   -0.9420 H   0  0  0  0  0  0  0  0  0  0  0  0
   17.9300   -6.4200   -0.5340 H   0  0  0  0  0  0  0  0  0  0  0  0
   16.2430   -8.2260   -0.0480 H   0  0  0  0  0  0  0  0  0  0  0  0
   13.8250   -7.6430    0.0730 H   0  0  0  0  0  0  0  0  0  0  0  0
   13.0710   -5.3490   -0.3520 H   0  0  0  0  0  0  0  0  0  0  0  0
   15.7520   -3.7000   -3.1830 H   0  0  0  0  0  0  0  0  0  0  0  0
   16.4340   -2.0590   -4.9380 H   0  0  0  0  0  0  0  0  0  0  0  0
   16.2630    0.3620   -4.5520 H   0  0  0  0  0  0  0  0  0  0  0  0
   14.5270    2.0450   -4.3370 H   0  0  0  0  0  0  0  0  0  0  0  0
   14.4310    5.3580   -1.7650 H   0  0  0  0  0  0  0  0  0  0  0  0
   15.9440    1.5470   -0.2590 H   0  0  0  0  0  0  0  0  0  0  0  0
   14.6480   -0.4170   -0.6160 H   0  0  0  0  0  0  0  0  0  0  0  0
   13.5280   -2.0980    3.5260 H   0  0  0  0  0  0  0  0  0  0  0  0
  1  2  1  0  0  0  0
  1 28  1  0  0  0  0
  1 29  1  0  0  0  0
  1 30  1  0  0  0  0
  2  3  1  0  0  0  0
  2 26  1  0  0  0  0
  3  4  1  0  0  0  0
  3  5  2  0  0  0  0
  4 31  1  0  0  0  0
  4 45  1  0  0  0  0
  5  6  1  0  0  0  0
  5 32  1  0  0  0  0
  6  7  1  6  0  0  0
  6 13  1  0  0  0  0
  6 26  1  0  0  0  0
  7  8  2  0  0  0  0
  7 12  1  0  0  0  0
  8  9  1  0  0  0  0
  8 33  1  0  0  0  0
  9 10  2  0  0  0  0
  9 34  1  0  0  0  0
 10 11  1  0  0  0  0
 10 35  1  0  0  0  0
 11 12  2  0  0  0  0
 11 36  1  0  0  0  0
 12 37  1  0  0  0  0
 13 14  2  0  0  0  0
 13 25  1  0  0  0  0
 14 15  1  0  0  0  0
 14 38  1  0  0  0  0
 15 16  2  0  0  0  0
 15 39  1  0  0  0  0
 16 17  1  0  0  0  0
 16 40  1  0  0  0  0
 17 18  1  0  0  0  0
 17 25  2  0  0  0  0
 18 19  2  0  0  0  0
 18 24  1  0  0  0  0
 19 20  1  0  0  0  0
 19 41  1  0  0  0  0
 20 21  2  0  0  0  0
 21 22  1  0  0  0  0
 21 42  1  0  0  0  0
 22 23  1  0  0  0  0
 22 24  2  0  0  0  0
 24 43  1  0  0  0  0
 25 44  1  0  0  0  0
 26 27  2  0  0  0  0
M  CHG  1   5   1
M  END
$$$$
