p38a_2aa
 OpenBabel02232411163D
Structure written by MMmdl.
 43 45  0  0  0  0  0  0  0  0999 V2000
   36.3320   36.0040   15.8950 C   0  0  0  0  0  0  0  0  0  0  0  0
   34.6070   35.0850   21.4970 C   0  0  0  0  0  0  0  0  0  0  0  0
   35.6570   35.5710   17.0320 C   0  0  0  0  0  0  0  0  0  0  0  0
   34.0600   39.2080   23.9620 C   0  0  0  0  0  0  0  0  0  0  0  0
   33.6940   39.2260   26.4550 C   0  0  0  0  0  0  0  0  0  0  0  0
   34.7580   37.9540   21.6070 C   0  0  0  0  0  0  0  0  0  0  0  0
   35.1750   37.2730   20.4090 C   0  0  0  0  0  0  0  0  0  0  0  0
   37.6320   36.4890   16.0870 C   0  0  0  0  0  0  0  0  0  0  0  0
   38.2690   36.5160   17.3310 C   0  0  0  0  0  0  0  0  0  0  0  0
   37.5570   36.1070   18.4640 C   0  0  0  0  0  0  0  0  0  0  0  0
   34.4110   37.2050   22.7710 C   0  0  0  0  0  0  0  0  0  0  0  0
   34.6810   39.3680   21.7060 C   0  0  0  0  0  0  0  0  0  0  0  0
   35.1330   35.9210   20.3830 C   0  0  0  0  0  0  0  0  0  0  0  0
   36.2500   35.6360   18.3100 C   0  0  0  0  0  0  0  0  0  0  0  0
   34.0570   35.0250   23.9540 C   0  0  0  0  0  0  0  0  0  0  0  0
   34.4340   35.0660   16.9390 F   0  0  0  0  0  0  0  0  0  0  0  0
   35.5030   35.0670   19.3480 O   0  0  0  0  0  0  0  0  0  0  0  0
   34.3470   40.0050   22.8410 N   0  0  0  0  0  0  0  0  0  0  0  0
   34.3740   33.8990   21.4390 O   0  0  0  0  0  0  0  0  0  0  0  0
   34.3710   35.8050   22.7250 N   0  0  0  0  0  0  0  0  0  0  0  0
   34.0820   37.8290   23.9520 N   0  0  0  0  0  0  0  0  0  0  0  0
   33.6430   39.8620   25.1060 N   0  0  0  0  0  0  0  0  0  0  0  0
   35.8660   35.9920   14.9060 H   0  0  0  0  0  0  0  0  0  0  0  0
   33.9450   40.3050   27.5440 C   0  0  0  0  0  0  0  0  0  0  0  0
   35.5250   37.8770   19.5680 H   0  0  0  0  0  0  0  0  0  0  0  0
   39.2960   36.8800   17.4250 H   0  0  0  0  0  0  0  0  0  0  0  0
   38.0200   36.1790   19.4510 H   0  0  0  0  0  0  0  0  0  0  0  0
   34.8980   39.9930   20.8230 H   0  0  0  0  0  0  0  0  0  0  0  0
   34.6550   35.4160   24.8220 H   0  0  0  0  0  0  0  0  0  0  0  0
   32.9630   35.1020   24.1920 H   0  0  0  0  0  0  0  0  0  0  0  0
   34.3210   33.9440   23.8000 H   0  0  0  0  0  0  0  0  0  0  0  0
   33.6560   40.9000   25.1060 H   0  0  0  0  0  0  0  0  0  0  0  0
   38.2770   36.9820   15.0310 F   0  0  0  0  0  0  0  0  0  0  0  0
   32.3510   38.5020   26.7460 C   0  0  0  0  0  0  0  0  0  0  0  0
   32.3870   37.1330   26.3370 O   0  0  0  0  0  0  0  0  0  0  0  0
   32.8100   37.0670   25.4390 H   0  0  0  0  0  0  0  0  0  0  0  0
   32.1680   38.4370   27.8480 H   0  0  0  0  0  0  0  0  0  0  0  0
   31.5050   39.0120   26.2280 H   0  0  0  0  0  0  0  0  0  0  0  0
   35.0760   41.1280   27.2170 O   0  0  0  0  0  0  0  0  0  0  0  0
   33.0500   40.9540   27.6910 H   0  0  0  0  0  0  0  0  0  0  0  0
   34.2420   39.8110   28.5020 H   0  0  0  0  0  0  0  0  0  0  0  0
   34.7480   41.8390   26.5810 H   0  0  0  0  0  0  0  0  0  0  0  0
   34.5340   38.4770   26.4990 H   0  0  0  0  0  0  0  0  0  0  0  0
  1  3  2  0  0  0  0
  1  8  1  0  0  0  0
  1 23  1  0  0  0  0
  2 13  1  0  0  0  0
  2 19  2  0  0  0  0
  2 20  1  0  0  0  0
  3 14  1  0  0  0  0
  3 16  1  0  0  0  0
  4 18  2  0  0  0  0
  4 21  1  0  0  0  0
  4 22  1  0  0  0  0
  5 22  1  0  0  0  0
  5 24  1  0  0  0  0
  5 34  1  0  0  0  0
  5 43  1  0  0  0  0
  6  7  1  0  0  0  0
  6 11  1  0  0  0  0
  6 12  2  0  0  0  0
  7 13  2  0  0  0  0
  7 25  1  0  0  0  0
  8  9  2  0  0  0  0
  8 33  1  0  0  0  0
  9 10  1  0  0  0  0
  9 26  1  0  0  0  0
 10 14  2  0  0  0  0
 10 27  1  0  0  0  0
 11 20  1  0  0  0  0
 11 21  2  0  0  0  0
 12 18  1  0  0  0  0
 12 28  1  0  0  0  0
 13 17  1  0  0  0  0
 14 17  1  0  0  0  0
 15 20  1  0  0  0  0
 15 29  1  0  0  0  0
 15 30  1  0  0  0  0
 15 31  1  0  0  0  0
 22 32  1  0  0  0  0
 24 39  1  0  0  0  0
 24 40  1  0  0  0  0
 24 41  1  0  0  0  0
 34 35  1  0  0  0  0
 34 37  1  0  0  0  0
 34 38  1  0  0  0  0
 35 36  1  0  0  0  0
 39 42  1  0  0  0  0
M  END
$$$$
