p38a_2u
 OpenBabel02232411163D
Structure written by MMmdl.
 64 68  0  0  0  0  0  0  0  0999 V2000
   38.2620   36.5370   17.1740 C   0  0  0  0  0  0  0  0  0  0  0  0
   34.5010   35.1100   21.2360 C   0  0  0  0  0  0  0  0  0  0  0  0
   37.4700   36.0860   18.2280 C   0  0  0  0  0  0  0  0  0  0  0  0
   33.9810   39.1980   23.7690 C   0  0  0  0  0  0  0  0  0  0  0  0
   34.6060   37.9860   21.3730 C   0  0  0  0  0  0  0  0  0  0  0  0
   35.0090   37.3280   20.1610 C   0  0  0  0  0  0  0  0  0  0  0  0
   37.6200   36.6980   15.9390 C   0  0  0  0  0  0  0  0  0  0  0  0
   36.2710   36.4080   15.7260 C   0  0  0  0  0  0  0  0  0  0  0  0
   35.5000   35.9440   16.7980 C   0  0  0  0  0  0  0  0  0  0  0  0
   34.2130   37.2170   22.5070 C   0  0  0  0  0  0  0  0  0  0  0  0
   34.6060   39.4010   21.5200 C   0  0  0  0  0  0  0  0  0  0  0  0
   34.9890   35.9770   20.1250 C   0  0  0  0  0  0  0  0  0  0  0  0
   36.1060   35.7750   18.0460 C   0  0  0  0  0  0  0  0  0  0  0  0
   37.9970   35.9460   19.4370 F   0  0  0  0  0  0  0  0  0  0  0  0
   35.3760   35.1540   19.0680 O   0  0  0  0  0  0  0  0  0  0  0  0
   34.3100   40.0200   22.6720 N   0  0  0  0  0  0  0  0  0  0  0  0
   34.4070   33.9030   21.1590 O   0  0  0  0  0  0  0  0  0  0  0  0
   34.1160   35.8100   22.4310 N   0  0  0  0  0  0  0  0  0  0  0  0
   33.9180   37.8190   23.7010 N   0  0  0  0  0  0  0  0  0  0  0  0
   33.6440   39.8070   24.9550 N   0  0  0  0  0  0  0  0  0  0  0  0
   39.3170   36.7880   17.3130 H   0  0  0  0  0  0  0  0  0  0  0  0
   35.3300   37.9430   19.3190 H   0  0  0  0  0  0  0  0  0  0  0  0
   35.8050   36.5530   14.7490 H   0  0  0  0  0  0  0  0  0  0  0  0
   34.4360   35.7320   16.6550 H   0  0  0  0  0  0  0  0  0  0  0  0
   34.8580   40.0380   20.6560 H   0  0  0  0  0  0  0  0  0  0  0  0
   33.7890   40.8290   25.0680 H   0  0  0  0  0  0  0  0  0  0  0  0
   38.3260   37.1920   14.9240 F   0  0  0  0  0  0  0  0  0  0  0  0
   32.3420   39.0770   28.4720 C   0  0  0  0  0  0  0  0  0  0  0  0
   32.4660   39.7920   27.1200 C   0  0  0  0  0  0  0  0  0  0  0  0
   33.4650   39.0320   26.2220 C   0  0  0  0  0  0  0  0  0  0  0  0
   34.8160   38.8540   26.9490 C   0  0  0  0  0  0  0  0  0  0  0  0
   34.5860   38.1910   28.3130 C   0  0  0  0  0  0  0  0  0  0  0  0
   33.6290   38.9220   29.1130 O   0  0  0  0  0  0  0  0  0  0  0  0
   31.8750   38.0730   28.3490 H   0  0  0  0  0  0  0  0  0  0  0  0
   31.7880   39.7040   29.2080 H   0  0  0  0  0  0  0  0  0  0  0  0
   32.8190   40.8380   27.2820 H   0  0  0  0  0  0  0  0  0  0  0  0
   31.4700   39.8310   26.6200 H   0  0  0  0  0  0  0  0  0  0  0  0
   33.0400   38.0190   25.9700 H   0  0  0  0  0  0  0  0  0  0  0  0
   35.4890   38.2030   26.3400 H   0  0  0  0  0  0  0  0  0  0  0  0
   35.3110   39.8450   27.0830 H   0  0  0  0  0  0  0  0  0  0  0  0
   34.2340   37.1400   28.1840 H   0  0  0  0  0  0  0  0  0  0  0  0
   35.5040   38.2370   28.9430 H   0  0  0  0  0  0  0  0  0  0  0  0
   34.3700   33.6840   25.6440 C   0  0  0  0  0  0  0  0  0  0  0  0
   34.8170   34.2500   24.2750 C   0  0  0  0  0  0  0  0  0  0  0  0
   33.6540   35.0460   23.6570 C   0  0  0  0  0  0  0  0  0  0  0  0
   32.4480   34.1370   23.3410 C   0  0  0  0  0  0  0  0  0  0  0  0
   32.3670   32.9580   24.3400 C   0  0  0  0  0  0  0  0  0  0  0  0
   34.5560   34.4570   26.4400 H   0  0  0  0  0  0  0  0  0  0  0  0
   35.0020   32.7780   25.8550 H   0  0  0  0  0  0  0  0  0  0  0  0
   35.1190   33.4090   23.6100 H   0  0  0  0  0  0  0  0  0  0  0  0
   35.7000   34.9090   24.4460 H   0  0  0  0  0  0  0  0  0  0  0  0
   33.3170   35.8030   24.4300 H   0  0  0  0  0  0  0  0  0  0  0  0
   31.5170   34.7500   23.4060 H   0  0  0  0  0  0  0  0  0  0  0  0
   32.5140   33.7030   22.3160 H   0  0  0  0  0  0  0  0  0  0  0  0
   31.2930   32.6580   24.4510 H   0  0  0  0  0  0  0  0  0  0  0  0
   32.9570   32.0880   23.9420 H   0  0  0  0  0  0  0  0  0  0  0  0
   32.9120   33.3560   25.6710 N   0  0  0  0  0  0  0  0  0  0  0  0
   32.2640   32.6570   27.0980 S   0  0  0  0  0  0  0  0  0  0  0  0
   31.0010   31.9840   26.7240 O   0  0  0  0  0  0  0  0  0  0  0  0
   32.0520   33.7100   28.1010 O   0  0  0  0  0  0  0  0  0  0  0  0
   33.4280   31.5110   27.6900 C   0  0  0  0  0  0  0  0  0  0  0  0
   33.7690   30.7950   26.8990 H   0  0  0  0  0  0  0  0  0  0  0  0
   34.3400   32.0060   28.1150 H   0  0  0  0  0  0  0  0  0  0  0  0
   33.0040   30.8830   28.5190 H   0  0  0  0  0  0  0  0  0  0  0  0
  1  3  2  0  0  0  0
  1  7  1  0  0  0  0
  1 21  1  0  0  0  0
  2 12  1  0  0  0  0
  2 17  2  0  0  0  0
  2 18  1  0  0  0  0
  3 13  1  0  0  0  0
  3 14  1  0  0  0  0
  4 16  2  0  0  0  0
  4 19  1  0  0  0  0
  4 20  1  0  0  0  0
  5  6  1  0  0  0  0
  5 10  1  0  0  0  0
  5 11  2  0  0  0  0
  6 12  2  0  0  0  0
  6 22  1  0  0  0  0
  7  8  2  0  0  0  0
  7 27  1  0  0  0  0
  8  9  1  0  0  0  0
  8 23  1  0  0  0  0
  9 13  2  0  0  0  0
  9 24  1  0  0  0  0
 10 18  1  0  0  0  0
 10 19  2  0  0  0  0
 11 16  1  0  0  0  0
 11 25  1  0  0  0  0
 12 15  1  0  0  0  0
 13 15  1  0  0  0  0
 18 45  1  0  0  0  0
 20 26  1  0  0  0  0
 20 30  1  0  0  0  0
 28 29  1  0  0  0  0
 28 33  1  0  0  0  0
 28 34  1  0  0  0  0
 28 35  1  0  0  0  0
 29 30  1  0  0  0  0
 29 36  1  0  0  0  0
 29 37  1  0  0  0  0
 30 31  1  0  0  0  0
 30 38  1  0  0  0  0
 31 32  1  0  0  0  0
 31 39  1  0  0  0  0
 31 40  1  0  0  0  0
 32 33  1  0  0  0  0
 32 41  1  0  0  0  0
 32 42  1  0  0  0  0
 43 44  1  0  0  0  0
 43 48  1  0  0  0  0
 43 49  1  0  0  0  0
 43 57  1  0  0  0  0
 44 45  1  0  0  0  0
 44 50  1  0  0  0  0
 44 51  1  0  0  0  0
 45 46  1  0  0  0  0
 45 52  1  0  0  0  0
 46 47  1  0  0  0  0
 46 53  1  0  0  0  0
 46 54  1  0  0  0  0
 47 55  1  0  0  0  0
 47 56  1  0  0  0  0
 47 57  1  0  0  0  0
 57 58  1  0  0  0  0
 58 59  2  0  0  0  0
 58 60  2  0  0  0  0
 58 61  1  0  0  0  0
 61 62  1  0  0  0  0
 61 63  1  0  0  0  0
 61 64  1  0  0  0  0
M  END
$$$$
