p38a_2ff
 OpenBabel02232411163D
Structure written by MMmdl.
 49 52  0  0  1  0  0  0  0  0999 V2000
   36.3630   36.0710   15.7520 C   0  0  0  0  0  0  0  0  0  0  0  0
   34.6070   35.0380   21.3180 C   0  0  0  0  0  0  0  0  0  0  0  0
   35.6930   35.5900   16.8730 C   0  0  0  0  0  0  0  0  0  0  0  0
   34.1150   39.1550   23.8060 C   0  0  0  0  0  0  0  0  0  0  0  0
   34.7710   37.9090   21.4330 C   0  0  0  0  0  0  0  0  0  0  0  0
   35.1890   37.2270   20.2390 C   0  0  0  0  0  0  0  0  0  0  0  0
   37.6570   36.5650   15.9610 C   0  0  0  0  0  0  0  0  0  0  0  0
   38.2910   36.5600   17.2060 C   0  0  0  0  0  0  0  0  0  0  0  0
   37.5830   36.1070   18.3250 C   0  0  0  0  0  0  0  0  0  0  0  0
   34.4120   37.1600   22.5940 C   0  0  0  0  0  0  0  0  0  0  0  0
   34.7180   39.3250   21.5430 C   0  0  0  0  0  0  0  0  0  0  0  0
   35.1460   35.8760   20.2130 C   0  0  0  0  0  0  0  0  0  0  0  0
   36.2820   35.6240   18.1530 C   0  0  0  0  0  0  0  0  0  0  0  0
   34.0030   35.0000   23.7710 C   0  0  0  0  0  0  0  0  0  0  0  0
   34.4760   35.0750   16.7610 F   0  0  0  0  0  0  0  0  0  0  0  0
   35.5350   35.0280   19.1760 O   0  0  0  0  0  0  0  0  0  0  0  0
   34.4000   39.9590   22.6820 N   0  0  0  0  0  0  0  0  0  0  0  0
   34.3800   33.8500   21.2540 O   0  0  0  0  0  0  0  0  0  0  0  0
   34.3500   35.7580   22.5370 N   0  0  0  0  0  0  0  0  0  0  0  0
   34.1060   37.7740   23.7820 N   0  0  0  0  0  0  0  0  0  0  0  0
   33.7580   39.8040   24.9640 N   0  0  0  0  0  0  0  0  0  0  0  0
   35.8960   36.0860   14.7650 H   0  0  0  0  0  0  0  0  0  0  0  0
   35.5470   37.8300   19.4010 H   0  0  0  0  0  0  0  0  0  0  0  0
   39.3130   36.9340   17.3170 H   0  0  0  0  0  0  0  0  0  0  0  0
   38.0420   36.1590   19.3150 H   0  0  0  0  0  0  0  0  0  0  0  0
   34.9420   39.9530   20.6650 H   0  0  0  0  0  0  0  0  0  0  0  0
   34.7330   35.2510   24.5890 H   0  0  0  0  0  0  0  0  0  0  0  0
   32.9730   35.2790   24.1220 H   0  0  0  0  0  0  0  0  0  0  0  0
   34.0400   33.8980   23.5750 H   0  0  0  0  0  0  0  0  0  0  0  0
   33.8460   40.8390   25.0180 H   0  0  0  0  0  0  0  0  0  0  0  0
   38.2960   37.0990   14.9220 F   0  0  0  0  0  0  0  0  0  0  0  0
   32.3630   39.0790   28.4460 C   0  0  0  0  0  0  0  0  0  0  0  0
   32.4360   39.6600   27.0290 C   0  0  0  0  0  0  0  0  0  0  0  0
   33.6900   39.1270   26.2950 C   0  0  2  0  0  0  0  0  0  0  0  0
   34.9860   39.4360   27.0860 C   0  0  0  0  0  0  0  0  0  0  0  0
   34.8990   38.8880   28.5150 C   0  0  0  0  0  0  0  0  0  0  0  0
   33.6450   39.4330   29.2240 C   0  0  2  0  0  0  0  0  0  0  0  0
   32.2410   37.9710   28.3880 H   0  0  0  0  0  0  0  0  0  0  0  0
   31.4770   39.4960   28.9760 H   0  0  0  0  0  0  0  0  0  0  0  0
   32.4810   40.7730   27.0850 H   0  0  0  0  0  0  0  0  0  0  0  0
   31.5230   39.3700   26.4580 H   0  0  0  0  0  0  0  0  0  0  0  0
   33.5930   38.0160   26.1590 H   0  0  0  0  0  0  0  0  0  0  0  0
   35.8530   38.9640   26.5690 H   0  0  0  0  0  0  0  0  0  0  0  0
   35.1510   40.5410   27.1200 H   0  0  0  0  0  0  0  0  0  0  0  0
   34.8650   37.7720   28.4810 H   0  0  0  0  0  0  0  0  0  0  0  0
   35.8120   39.1900   29.0800 H   0  0  0  0  0  0  0  0  0  0  0  0
   33.7220   40.5350   29.3890 H   0  0  0  0  0  0  0  0  0  0  0  0
   33.5700   38.9270   30.5700 O   0  0  0  0  0  0  0  0  0  0  0  0
   33.5100   37.9380   30.5550 H   0  0  0  0  0  0  0  0  0  0  0  0
  1  3  2  0  0  0  0
  1  7  1  0  0  0  0
  1 22  1  0  0  0  0
  2 12  1  0  0  0  0
  2 18  2  0  0  0  0
  2 19  1  0  0  0  0
  3 13  1  0  0  0  0
  3 15  1  0  0  0  0
  4 17  2  0  0  0  0
  4 20  1  0  0  0  0
  4 21  1  0  0  0  0
  5  6  1  0  0  0  0
  5 10  1  0  0  0  0
  5 11  2  0  0  0  0
  6 12  2  0  0  0  0
  6 23  1  0  0  0  0
  7  8  2  0  0  0  0
  7 31  1  0  0  0  0
  8  9  1  0  0  0  0
  8 24  1  0  0  0  0
  9 13  2  0  0  0  0
  9 25  1  0  0  0  0
 10 19  1  0  0  0  0
 10 20  2  0  0  0  0
 11 17  1  0  0  0  0
 11 26  1  0  0  0  0
 12 16  1  0  0  0  0
 13 16  1  0  0  0  0
 14 19  1  0  0  0  0
 14 27  1  0  0  0  0
 14 28  1  0  0  0  0
 14 29  1  0  0  0  0
 21 30  1  0  0  0  0
 21 34  1  0  0  0  0
 32 33  1  0  0  0  0
 32 37  1  0  0  0  0
 32 38  1  0  0  0  0
 32 39  1  0  0  0  0
 33 34  1  0  0  0  0
 33 40  1  0  0  0  0
 33 41  1  0  0  0  0
 34 35  1  0  0  0  0
 34 42  1  6  0  0  0
 35 36  1  0  0  0  0
 35 43  1  0  0  0  0
 35 44  1  0  0  0  0
 36 37  1  0  0  0  0
 36 45  1  0  0  0  0
 36 46  1  0  0  0  0
 37 47  1  1  0  0  0
 37 48  1  0  0  0  0
 48 49  1  0  0  0  0
M  END
$$$$
