1h1r
 OpenBabel02232411153D
Structure written by MMmdl.
 45 48  0  0  0  0  0  0  0  0999 V2000
    1.8860   28.8070    6.8390 C   0  0  0  0  0  0  0  0  0  0  0  0
   -1.5830   31.4320    7.9630 C   0  0  0  0  0  0  0  0  0  0  0  0
   -0.1380   25.9440    8.9150 C   0  0  0  0  0  0  0  0  0  0  0  0
   -0.9120   25.2510   10.0440 C   0  0  0  0  0  0  0  0  0  0  0  0
   -0.7170   23.7280    9.8600 C   0  0  0  0  0  0  0  0  0  0  0  0
   -1.3380   22.9360   11.0190 C   0  0  0  0  0  0  0  0  0  0  0  0
   -0.8020   23.4150   12.3780 C   0  0  0  0  0  0  0  0  0  0  0  0
   -1.0420   24.9210   12.5660 C   0  0  0  0  0  0  0  0  0  0  0  0
   -0.4130   25.7300   11.4220 C   0  0  0  0  0  0  0  0  0  0  0  0
    4.4330   25.2660    7.9100 C   0  0  0  0  0  0  0  0  0  0  0  0
    5.2950   24.8200    6.9030 C   0  0  0  0  0  0  0  0  0  0  0  0
    5.4130   25.5930    5.7470 C   0  0  0  0  0  0  0  0  0  0  0  0
    4.7020   26.7720    5.5600 C   0  0  0  0  0  0  0  0  0  0  0  0
    1.1620   27.8610    7.5590 N   0  0  0  0  0  0  0  0  0  0  0  0
   -0.0390   28.1990    8.0930 C   0  0  0  0  0  0  0  0  0  0  0  0
   -0.7340   27.3010    8.8090 O   0  0  0  0  0  0  0  0  0  0  0  0
   -0.5550   29.5090    7.9110 C   0  0  0  0  0  0  0  0  0  0  0  0
   -1.6980   30.1680    8.3780 N   0  0  0  0  0  0  0  0  0  0  0  0
   -0.3680   31.6550    7.2220 N   0  0  0  0  0  0  0  0  0  0  0  0
    0.2850   30.4280    7.1600 C   0  0  0  0  0  0  0  0  0  0  0  0
    1.4830   30.1050    6.5730 N   0  0  0  0  0  0  0  0  0  0  0  0
    3.1220   28.4190    6.3330 N   0  0  0  0  0  0  0  0  0  0  0  0
    3.8160   27.1940    6.5780 C   0  0  0  0  0  0  0  0  0  0  0  0
    3.7030   26.4480    7.7640 C   0  0  0  0  0  0  0  0  0  0  0  0
   -2.2790   32.2440    8.1520 H   0  0  0  0  0  0  0  0  0  0  0  0
    0.9440   26.0340    9.1620 H   0  0  0  0  0  0  0  0  0  0  0  0
   -0.3040   25.4670    7.9280 H   0  0  0  0  0  0  0  0  0  0  0  0
   -2.0000   25.4890    9.9650 H   0  0  0  0  0  0  0  0  0  0  0  0
   -1.1920   23.4090    8.9070 H   0  0  0  0  0  0  0  0  0  0  0  0
    0.3770   23.4970    9.8150 H   0  0  0  0  0  0  0  0  0  0  0  0
   -2.4410   23.0670   11.0030 H   0  0  0  0  0  0  0  0  0  0  0  0
   -1.1020   21.8530   10.8960 H   0  0  0  0  0  0  0  0  0  0  0  0
   -1.3100   22.8530   13.1950 H   0  0  0  0  0  0  0  0  0  0  0  0
    0.2930   23.2110   12.4280 H   0  0  0  0  0  0  0  0  0  0  0  0
   -2.1360   25.1210   12.6180 H   0  0  0  0  0  0  0  0  0  0  0  0
   -0.5820   25.2470   13.5280 H   0  0  0  0  0  0  0  0  0  0  0  0
    0.6970   25.6160   11.4820 H   0  0  0  0  0  0  0  0  0  0  0  0
   -0.6660   26.8070   11.5520 H   0  0  0  0  0  0  0  0  0  0  0  0
    4.3200   24.6770    8.8260 H   0  0  0  0  0  0  0  0  0  0  0  0
    5.8550   23.8920    7.0160 H   0  0  0  0  0  0  0  0  0  0  0  0
    4.8280   27.3620    4.6480 H   0  0  0  0  0  0  0  0  0  0  0  0
   -0.0990   32.5340    6.7570 H   0  0  0  0  0  0  0  0  0  0  0  0
    3.6230   29.0800    5.6920 H   0  0  0  0  0  0  0  0  0  0  0  0
    3.0490   26.7680    8.5770 H   0  0  0  0  0  0  0  0  0  0  0  0
    6.4700   25.0550    4.4890 Cl  0  0  0  0  0  0  0  0  0  0  0  0
  1 14  2  0  0  0  0
  1 21  1  0  0  0  0
  1 22  1  0  0  0  0
  2 18  2  0  0  0  0
  2 19  1  0  0  0  0
  2 25  1  0  0  0  0
  3  4  1  0  0  0  0
  3 16  1  0  0  0  0
  3 26  1  0  0  0  0
  3 27  1  0  0  0  0
  4  5  1  0  0  0  0
  4  9  1  0  0  0  0
  4 28  1  0  0  0  0
  5  6  1  0  0  0  0
  5 29  1  0  0  0  0
  5 30  1  0  0  0  0
  6  7  1  0  0  0  0
  6 31  1  0  0  0  0
  6 32  1  0  0  0  0
  7  8  1  0  0  0  0
  7 33  1  0  0  0  0
  7 34  1  0  0  0  0
  8  9  1  0  0  0  0
  8 35  1  0  0  0  0
  8 36  1  0  0  0  0
  9 37  1  0  0  0  0
  9 38  1  0  0  0  0
 10 11  2  0  0  0  0
 10 24  1  0  0  0  0
 10 39  1  0  0  0  0
 11 12  1  0  0  0  0
 11 40  1  0  0  0  0
 12 13  2  0  0  0  0
 12 45  1  0  0  0  0
 13 23  1  0  0  0  0
 13 41  1  0  0  0  0
 14 15  1  0  0  0  0
 15 16  1  0  0  0  0
 15 17  2  0  0  0  0
 17 18  1  0  0  0  0
 17 20  1  0  0  0  0
 19 20  1  0  0  0  0
 19 42  1  0  0  0  0
 20 21  2  0  0  0  0
 22 23  1  0  0  0  0
 22 43  1  0  0  0  0
 23 24  2  0  0  0  0
 24 44  1  0  0  0  0
M  END
$$$$
