jmc_27
                    3D
 Schrodinger Suite 2022-3.
 36 38  0  0  1  0  0  0  0  0999 V2000
   -3.1450   22.6380  -29.6410 C   0  0  0  0  0  0  0  0  0  0  0  0
   -3.5940   21.5400  -28.8870 C   0  0  0  0  0  0  0  0  0  0  0  0
   -2.7760   20.9120  -27.9490 C   0  0  0  0  0  0  0  0  0  0  0  0
   -5.2060   25.2510  -31.5100 C   0  0  0  0  0  0  0  0  0  0  0  0
   -4.0220   23.1550  -30.7430 C   0  0  0  0  0  0  0  0  0  0  0  0
   -5.8610   24.6760  -32.6110 C   0  0  0  0  0  0  0  0  0  0  0  0
   -6.7310   25.4770  -33.3650 C   0  0  0  0  0  0  0  0  0  0  0  0
   -1.8590   23.1230  -29.3740 C   0  0  0  0  0  0  0  0  0  0  0  0
   -1.4820   21.3970  -27.7320 C   0  0  0  0  0  0  0  0  0  0  0  0
   -1.0230   22.5140  -28.4340 C   0  0  0  0  0  0  0  0  0  0  0  0
   -5.1910   20.9650  -29.1300 Cl  0  0  0  0  0  0  0  0  0  0  0  0
   -4.4270   22.4330  -31.6290 O   0  0  0  0  0  0  0  0  0  0  0  0
   -4.3460   24.5230  -30.6390 N   0  0  0  0  0  0  0  0  0  0  0  0
   -6.9570   26.7890  -33.1020 N   0  0  0  0  0  0  0  0  0  0  0  0
   -6.2990   27.3400  -32.0240 C   0  0  0  0  0  0  0  0  0  0  0  0
   -5.4170   26.6140  -31.2100 C   0  0  0  0  0  0  0  0  0  0  0  0
   -6.6290   28.7010  -31.7540 N   0  0  0  0  0  0  0  0  0  0  0  0
   -5.7670   29.6540  -31.1590 C   0  0  0  0  0  0  0  0  0  0  0  0
   -4.6160   29.3850  -30.8780 O   0  0  0  0  0  0  0  0  0  0  0  0
   -6.4160   30.9790  -30.9020 C   0  0  1  0  0  0  0  0  0  0  0  0
   -5.8850   31.8450  -29.7590 C   0  0  0  0  0  0  0  0  0  0  0  0
   -5.6760   32.2830  -31.1840 C   0  0  1  0  0  0  0  0  0  0  0  0
   -1.2670   24.5070  -30.1950 Cl  0  0  0  0  0  0  0  0  0  0  0  0
   -3.1230   20.0460  -27.3800 H   0  0  0  0  0  0  0  0  0  0  0  0
   -5.7280   23.6240  -32.8790 H   0  0  0  0  0  0  0  0  0  0  0  0
   -7.2800   25.0520  -34.2230 H   0  0  0  0  0  0  0  0  0  0  0  0
   -0.8270   20.9040  -27.0040 H   0  0  0  0  0  0  0  0  0  0  0  0
   -0.0200   22.9010  -28.2340 H   0  0  0  0  0  0  0  0  0  0  0  0
   -3.9460   25.0550  -29.8450 H   0  0  0  0  0  0  0  0  0  0  0  0
   -4.9130   27.0910  -30.3670 H   0  0  0  0  0  0  0  0  0  0  0  0
   -7.5840   29.0020  -32.0510 H   0  0  0  0  0  0  0  0  0  0  0  0
   -7.5030   31.0100  -31.0910 H   0  0  0  0  0  0  0  0  0  0  0  0
   -5.0330   31.4920  -29.1590 H   0  0  0  0  0  0  0  0  0  0  0  0
   -6.6180   32.3990  -29.1480 H   0  0  0  0  0  0  0  0  0  0  0  0
   -6.2590   33.1310  -31.5850 H   0  0  0  0  0  0  0  0  0  0  0  0
   -4.0820   32.2040  -31.8690 Cl  0  0  0  0  0  0  0  0  0  0  0  0
  1  2  2  0  0  0  0
  1  5  1  0  0  0  0
  1  8  1  0  0  0  0
  2  3  1  0  0  0  0
  2 11  1  0  0  0  0
  3  9  2  0  0  0  0
  3 24  1  0  0  0  0
  4  6  1  0  0  0  0
  4 13  1  0  0  0  0
  4 16  2  0  0  0  0
  5 12  2  0  0  0  0
  5 13  1  0  0  0  0
  6  7  2  0  0  0  0
  6 25  1  0  0  0  0
  7 14  1  0  0  0  0
  7 26  1  0  0  0  0
  8 10  2  0  0  0  0
  8 23  1  0  0  0  0
  9 10  1  0  0  0  0
  9 27  1  0  0  0  0
 10 28  1  0  0  0  0
 13 29  1  0  0  0  0
 14 15  2  0  0  0  0
 15 16  1  0  0  0  0
 15 17  1  0  0  0  0
 16 30  1  0  0  0  0
 17 18  1  0  0  0  0
 17 31  1  0  0  0  0
 18 19  2  0  0  0  0
 18 20  1  0  0  0  0
 20 21  1  0  0  0  0
 20 22  1  0  0  0  0
 20 32  1  0  0  0  0
 21 22  1  0  0  0  0
 21 33  1  0  0  0  0
 21 34  1  0  0  0  0
 22 35  1  0  0  0  0
 22 36  1  0  0  0  0
M  END
$$$$
