p38a_2aa
 OpenBabel02232411163D
Structure written by MMmdl.
 43 45  0  0  0  0  0  0  0  0999 V2000
   36.3400   35.9950   15.8410 C   0  0  0  0  0  0  0  0  0  0  0  0
   34.5840   35.0670   21.4410 C   0  0  0  0  0  0  0  0  0  0  0  0
   35.6540   35.5340   16.9610 C   0  0  0  0  0  0  0  0  0  0  0  0
   34.3760   39.2250   23.9020 C   0  0  0  0  0  0  0  0  0  0  0  0
   34.0820   39.2360   26.3980 C   0  0  0  0  0  0  0  0  0  0  0  0
   34.8110   37.9330   21.5150 C   0  0  0  0  0  0  0  0  0  0  0  0
   35.1730   37.2290   20.3140 C   0  0  0  0  0  0  0  0  0  0  0  0
   37.6320   36.4910   16.0590 C   0  0  0  0  0  0  0  0  0  0  0  0
   38.2520   36.5010   17.3120 C   0  0  0  0  0  0  0  0  0  0  0  0
   37.5290   36.0640   18.4280 C   0  0  0  0  0  0  0  0  0  0  0  0
   34.5030   37.2050   22.7030 C   0  0  0  0  0  0  0  0  0  0  0  0
   34.7640   39.3490   21.5950 C   0  0  0  0  0  0  0  0  0  0  0  0
   35.1090   35.8780   20.3080 C   0  0  0  0  0  0  0  0  0  0  0  0
   36.2280   35.5850   18.2480 C   0  0  0  0  0  0  0  0  0  0  0  0
   34.0730   35.0670   23.9150 C   0  0  0  0  0  0  0  0  0  0  0  0
   34.4370   35.0200   16.8420 F   0  0  0  0  0  0  0  0  0  0  0  0
   35.4620   35.0140   19.2730 O   0  0  0  0  0  0  0  0  0  0  0  0
   34.5390   40.0050   22.7450 N   0  0  0  0  0  0  0  0  0  0  0  0
   34.3160   33.8870   21.3980 O   0  0  0  0  0  0  0  0  0  0  0  0
   34.3900   35.8080   22.6630 N   0  0  0  0  0  0  0  0  0  0  0  0
   34.2850   37.8490   23.9000 N   0  0  0  0  0  0  0  0  0  0  0  0
   34.3780   39.9130   25.1060 N   0  0  0  0  0  0  0  0  0  0  0  0
   35.8860   35.9960   14.8470 H   0  0  0  0  0  0  0  0  0  0  0  0
   34.8310   39.9990   27.5220 C   0  0  0  0  0  0  0  0  0  0  0  0
   35.5110   37.8160   19.4560 H   0  0  0  0  0  0  0  0  0  0  0  0
   39.2740   36.8730   17.4270 H   0  0  0  0  0  0  0  0  0  0  0  0
   37.9780   36.1250   19.4220 H   0  0  0  0  0  0  0  0  0  0  0  0
   34.9070   39.9580   20.6870 H   0  0  0  0  0  0  0  0  0  0  0  0
   34.7640   35.3940   24.7410 H   0  0  0  0  0  0  0  0  0  0  0  0
   33.0180   35.2770   24.2320 H   0  0  0  0  0  0  0  0  0  0  0  0
   34.1990   33.9640   23.7550 H   0  0  0  0  0  0  0  0  0  0  0  0
   34.1300   40.9210   25.0910 H   0  0  0  0  0  0  0  0  0  0  0  0
   38.2840   37.0110   15.0220 F   0  0  0  0  0  0  0  0  0  0  0  0
   32.5640   39.1790   26.7000 C   0  0  0  0  0  0  0  0  0  0  0  0
   31.8090   38.5320   25.6690 O   0  0  0  0  0  0  0  0  0  0  0  0
   32.3810   37.8620   25.2160 H   0  0  0  0  0  0  0  0  0  0  0  0
   32.4000   38.6120   27.6490 H   0  0  0  0  0  0  0  0  0  0  0  0
   32.1250   40.2030   26.7490 H   0  0  0  0  0  0  0  0  0  0  0  0
   34.1700   41.2070   27.9240 O   0  0  0  0  0  0  0  0  0  0  0  0
   34.8340   39.3910   28.4590 H   0  0  0  0  0  0  0  0  0  0  0  0
   35.8690   40.2500   27.2010 H   0  0  0  0  0  0  0  0  0  0  0  0
   33.9780   41.7650   27.1070 H   0  0  0  0  0  0  0  0  0  0  0  0
   34.5030   38.1870   26.3690 H   0  0  0  0  0  0  0  0  0  0  0  0
  1  3  2  0  0  0  0
  1  8  1  0  0  0  0
  1 23  1  0  0  0  0
  2 13  1  0  0  0  0
  2 19  2  0  0  0  0
  2 20  1  0  0  0  0
  3 14  1  0  0  0  0
  3 16  1  0  0  0  0
  4 18  2  0  0  0  0
  4 21  1  0  0  0  0
  4 22  1  0  0  0  0
  5 22  1  0  0  0  0
  5 24  1  0  0  0  0
  5 34  1  0  0  0  0
  5 43  1  0  0  0  0
  6  7  1  0  0  0  0
  6 11  1  0  0  0  0
  6 12  2  0  0  0  0
  7 13  2  0  0  0  0
  7 25  1  0  0  0  0
  8  9  2  0  0  0  0
  8 33  1  0  0  0  0
  9 10  1  0  0  0  0
  9 26  1  0  0  0  0
 10 14  2  0  0  0  0
 10 27  1  0  0  0  0
 11 20  1  0  0  0  0
 11 21  2  0  0  0  0
 12 18  1  0  0  0  0
 12 28  1  0  0  0  0
 13 17  1  0  0  0  0
 14 17  1  0  0  0  0
 15 20  1  0  0  0  0
 15 29  1  0  0  0  0
 15 30  1  0  0  0  0
 15 31  1  0  0  0  0
 22 32  1  0  0  0  0
 24 39  1  0  0  0  0
 24 40  1  0  0  0  0
 24 41  1  0  0  0  0
 34 35  1  0  0  0  0
 34 37  1  0  0  0  0
 34 38  1  0  0  0  0
 35 36  1  0  0  0  0
 39 42  1  0  0  0  0
M  END
$$$$
