p38a_3fmk
 OpenBabel02232411163D
Structure written by MMmdl.
 46 49  0  0  1  0  0  0  0  0999 V2000
   37.5080   36.0810   18.2210 C   0  0  0  0  0  0  0  0  0  0  0  0
   38.2850   36.5390   17.1610 C   0  0  0  0  0  0  0  0  0  0  0  0
   33.4810   35.1470   23.5430 C   0  0  0  0  0  0  0  0  0  0  0  0
   36.2830   36.3900   15.7310 C   0  0  0  0  0  0  0  0  0  0  0  0
   34.6320   39.4310   21.4300 C   0  0  0  0  0  0  0  0  0  0  0  0
   32.5290   39.4930   25.8160 C   0  0  1  0  0  0  0  0  0  0  0  0
   33.2050   38.3950   26.6880 C   0  0  0  0  0  0  0  0  0  0  0  0
   33.8020   39.2810   23.6190 C   0  0  0  0  0  0  0  0  0  0  0  0
   34.4450   35.1400   21.2060 C   0  0  0  0  0  0  0  0  0  0  0  0
   35.0040   35.9760   20.1080 C   0  0  0  0  0  0  0  0  0  0  0  0
   35.0510   37.3270   20.1290 C   0  0  0  0  0  0  0  0  0  0  0  0
   36.1470   35.7530   18.0510 C   0  0  0  0  0  0  0  0  0  0  0  0
   35.5270   35.9170   16.8090 C   0  0  0  0  0  0  0  0  0  0  0  0
   34.5950   38.0180   21.3050 C   0  0  0  0  0  0  0  0  0  0  0  0
   34.0980   37.2820   22.4200 C   0  0  0  0  0  0  0  0  0  0  0  0
   33.5180   39.9550   24.7970 N   0  0  0  0  0  0  0  0  0  0  0  0
   37.6310   36.6950   15.9310 C   0  0  0  0  0  0  0  0  0  0  0  0
   38.3230   37.1960   14.9110 F   0  0  0  0  0  0  0  0  0  0  0  0
   38.0440   35.9500   19.4270 F   0  0  0  0  0  0  0  0  0  0  0  0
   35.4380   35.1310   19.0900 O   0  0  0  0  0  0  0  0  0  0  0  0
   34.3350   33.9340   21.1870 O   0  0  0  0  0  0  0  0  0  0  0  0
   34.0150   35.8820   22.3610 N   0  0  0  0  0  0  0  0  0  0  0  0
   33.6940   37.9110   23.5760 N   0  0  0  0  0  0  0  0  0  0  0  0
   34.2610   40.0720   22.5490 N   0  0  0  0  0  0  0  0  0  0  0  0
   31.2090   39.0250   25.2060 C   0  0  0  0  0  0  0  0  0  0  0  0
   32.3850   38.0990   27.8860 N   0  0  0  0  0  0  0  0  0  0  0  0
   32.0180   39.0400   28.8000 N   0  0  0  0  0  0  0  0  0  0  0  0
   31.2500   38.3570   29.6970 C   0  0  0  0  0  0  0  0  0  0  0  0
   31.1790   36.9960   29.3000 N   0  0  0  0  0  0  0  0  0  0  0  0
   31.8630   36.8720   28.2050 N   0  0  0  0  0  0  0  0  0  0  0  0
   39.3390   36.8040   17.2910 H   0  0  0  0  0  0  0  0  0  0  0  0
   34.1350   35.3350   24.4370 H   0  0  0  0  0  0  0  0  0  0  0  0
   32.4430   35.5100   23.7780 H   0  0  0  0  0  0  0  0  0  0  0  0
   33.4470   34.0470   23.3350 H   0  0  0  0  0  0  0  0  0  0  0  0
   35.8070   36.5310   14.7580 H   0  0  0  0  0  0  0  0  0  0  0  0
   34.9620   40.0490   20.5800 H   0  0  0  0  0  0  0  0  0  0  0  0
   32.3390   40.4010   26.4660 H   0  0  0  0  0  0  0  0  0  0  0  0
   33.3340   37.4420   26.0970 H   0  0  0  0  0  0  0  0  0  0  0  0
   34.2210   38.7600   27.0190 H   0  0  0  0  0  0  0  0  0  0  0  0
   35.4300   37.9240   19.2970 H   0  0  0  0  0  0  0  0  0  0  0  0
   34.4630   35.6960   16.6750 H   0  0  0  0  0  0  0  0  0  0  0  0
   33.6460   40.9890   24.8060 H   0  0  0  0  0  0  0  0  0  0  0  0
   30.7920   39.8170   24.5450 H   0  0  0  0  0  0  0  0  0  0  0  0
   31.3420   38.0880   24.6150 H   0  0  0  0  0  0  0  0  0  0  0  0
   30.4700   38.8250   26.0130 H   0  0  0  0  0  0  0  0  0  0  0  0
   30.7620   38.7740   30.5760 H   0  0  0  0  0  0  0  0  0  0  0  0
  1  2  2  0  0  0  0
  1 12  1  0  0  0  0
  1 19  1  0  0  0  0
  2 17  1  0  0  0  0
  2 31  1  0  0  0  0
  3 22  1  0  0  0  0
  3 32  1  0  0  0  0
  3 33  1  0  0  0  0
  3 34  1  0  0  0  0
  4 13  1  0  0  0  0
  4 17  2  0  0  0  0
  4 35  1  0  0  0  0
  5 14  2  0  0  0  0
  5 24  1  0  0  0  0
  5 36  1  0  0  0  0
  6  7  1  0  0  0  0
  6 16  1  0  0  0  0
  6 25  1  0  0  0  0
  6 37  1  6  0  0  0
  7 26  1  0  0  0  0
  7 38  1  0  0  0  0
  7 39  1  0  0  0  0
  8 16  1  0  0  0  0
  8 23  1  0  0  0  0
  8 24  2  0  0  0  0
  9 10  1  0  0  0  0
  9 21  2  0  0  0  0
  9 22  1  0  0  0  0
 10 11  2  0  0  0  0
 10 20  1  0  0  0  0
 11 14  1  0  0  0  0
 11 40  1  0  0  0  0
 12 13  2  0  0  0  0
 12 20  1  0  0  0  0
 13 41  1  0  0  0  0
 14 15  1  0  0  0  0
 15 22  1  0  0  0  0
 15 23  2  0  0  0  0
 16 42  1  0  0  0  0
 17 18  1  0  0  0  0
 25 43  1  0  0  0  0
 25 44  1  0  0  0  0
 25 45  1  0  0  0  0
 26 27  1  0  0  0  0
 26 30  1  0  0  0  0
 27 28  2  0  0  0  0
 28 29  1  0  0  0  0
 28 46  1  0  0  0  0
 29 30  2  0  0  0  0
M  END
$$$$
