p38a_2r
 OpenBabel02232411163D
Structure written by MMmdl.
 56 59  0  0  0  0  0  0  0  0999 V2000
   38.2700   36.5410   17.1790 C   0  0  0  0  0  0  0  0  0  0  0  0
   34.2170   35.1430   21.0680 C   0  0  0  0  0  0  0  0  0  0  0  0
   37.4620   36.0880   18.2190 C   0  0  0  0  0  0  0  0  0  0  0  0
   33.8250   39.1740   23.7260 C   0  0  0  0  0  0  0  0  0  0  0  0
   34.5490   37.9920   21.3460 C   0  0  0  0  0  0  0  0  0  0  0  0
   35.0230   37.3450   20.1520 C   0  0  0  0  0  0  0  0  0  0  0  0
   37.6440   36.7210   15.9380 C   0  0  0  0  0  0  0  0  0  0  0  0
   36.2930   36.4500   15.7090 C   0  0  0  0  0  0  0  0  0  0  0  0
   35.5050   35.9860   16.7680 C   0  0  0  0  0  0  0  0  0  0  0  0
   34.0410   37.2150   22.4310 C   0  0  0  0  0  0  0  0  0  0  0  0
   34.5850   39.3990   21.5220 C   0  0  0  0  0  0  0  0  0  0  0  0
   34.9080   36.0020   20.0590 C   0  0  0  0  0  0  0  0  0  0  0  0
   36.0960   35.7970   18.0200 C   0  0  0  0  0  0  0  0  0  0  0  0
   37.9730   35.9260   19.4320 F   0  0  0  0  0  0  0  0  0  0  0  0
   35.3540   35.1750   19.0330 O   0  0  0  0  0  0  0  0  0  0  0  0
   34.2410   40.0060   22.6710 N   0  0  0  0  0  0  0  0  0  0  0  0
   33.9220   33.9870   20.8860 O   0  0  0  0  0  0  0  0  0  0  0  0
   33.8580   35.8270   22.2890 N   0  0  0  0  0  0  0  0  0  0  0  0
   33.7010   37.8030   23.6230 N   0  0  0  0  0  0  0  0  0  0  0  0
   33.4500   39.7830   24.9090 N   0  0  0  0  0  0  0  0  0  0  0  0
   39.3260   36.7810   17.3290 H   0  0  0  0  0  0  0  0  0  0  0  0
   35.4680   37.9660   19.3730 H   0  0  0  0  0  0  0  0  0  0  0  0
   35.8420   36.6100   14.7270 H   0  0  0  0  0  0  0  0  0  0  0  0
   34.4400   35.7910   16.6070 H   0  0  0  0  0  0  0  0  0  0  0  0
   34.9060   40.0470   20.6910 H   0  0  0  0  0  0  0  0  0  0  0  0
   33.6260   40.7990   25.0310 H   0  0  0  0  0  0  0  0  0  0  0  0
   38.3660   37.2140   14.9340 F   0  0  0  0  0  0  0  0  0  0  0  0
   32.1200   38.9280   28.3840 C   0  0  0  0  0  0  0  0  0  0  0  0
   32.1900   39.6310   27.0230 C   0  0  0  0  0  0  0  0  0  0  0  0
   33.3280   39.0130   26.1830 C   0  0  0  0  0  0  0  0  0  0  0  0
   34.6580   39.0650   26.9690 C   0  0  0  0  0  0  0  0  0  0  0  0
   34.4760   38.3990   28.3390 C   0  0  0  0  0  0  0  0  0  0  0  0
   33.3850   38.9920   29.0820 O   0  0  0  0  0  0  0  0  0  0  0  0
   31.8270   37.8580   28.2650 H   0  0  0  0  0  0  0  0  0  0  0  0
   31.4360   39.4610   29.0830 H   0  0  0  0  0  0  0  0  0  0  0  0
   32.3790   40.7200   27.1680 H   0  0  0  0  0  0  0  0  0  0  0  0
   31.2200   39.5080   26.4860 H   0  0  0  0  0  0  0  0  0  0  0  0
   33.0690   37.9420   25.9480 H   0  0  0  0  0  0  0  0  0  0  0  0
   35.4570   38.5290   26.4040 H   0  0  0  0  0  0  0  0  0  0  0  0
   34.9750   40.1270   27.1030 H   0  0  0  0  0  0  0  0  0  0  0  0
   34.2830   37.3070   28.2270 H   0  0  0  0  0  0  0  0  0  0  0  0
   35.3490   38.5950   29.0030 H   0  0  0  0  0  0  0  0  0  0  0  0
   33.2550   35.0430   23.4050 C   0  0  0  0  0  0  0  0  0  0  0  0
   32.6080   35.7250   24.0330 H   0  0  0  0  0  0  0  0  0  0  0  0
   32.5920   34.2500   22.9620 H   0  0  0  0  0  0  0  0  0  0  0  0
   34.2820   34.3540   24.3600 C   0  0  0  0  0  0  0  0  0  0  0  0
   34.9100   33.3270   23.5590 O   0  0  0  0  0  0  0  0  0  0  0  0
   35.0530   32.5090   24.1080 H   0  0  0  0  0  0  0  0  0  0  0  0
   33.5130   33.7140   25.5290 C   0  0  0  0  0  0  0  0  0  0  0  0
   32.7180   33.0210   25.1770 H   0  0  0  0  0  0  0  0  0  0  0  0
   34.2090   33.1410   26.1850 H   0  0  0  0  0  0  0  0  0  0  0  0
   33.0330   34.4990   26.1610 H   0  0  0  0  0  0  0  0  0  0  0  0
   35.3810   35.2880   24.8740 C   0  0  0  0  0  0  0  0  0  0  0  0
   35.9780   34.7660   25.6540 H   0  0  0  0  0  0  0  0  0  0  0  0
   36.0570   35.5970   24.0550 H   0  0  0  0  0  0  0  0  0  0  0  0
   34.9290   36.1920   25.3410 H   0  0  0  0  0  0  0  0  0  0  0  0
  1  3  2  0  0  0  0
  1  7  1  0  0  0  0
  1 21  1  0  0  0  0
  2 12  1  0  0  0  0
  2 17  2  0  0  0  0
  2 18  1  0  0  0  0
  3 13  1  0  0  0  0
  3 14  1  0  0  0  0
  4 16  2  0  0  0  0
  4 19  1  0  0  0  0
  4 20  1  0  0  0  0
  5  6  1  0  0  0  0
  5 10  1  0  0  0  0
  5 11  2  0  0  0  0
  6 12  2  0  0  0  0
  6 22  1  0  0  0  0
  7  8  2  0  0  0  0
  7 27  1  0  0  0  0
  8  9  1  0  0  0  0
  8 23  1  0  0  0  0
  9 13  2  0  0  0  0
  9 24  1  0  0  0  0
 10 18  1  0  0  0  0
 10 19  2  0  0  0  0
 11 16  1  0  0  0  0
 11 25  1  0  0  0  0
 12 15  1  0  0  0  0
 13 15  1  0  0  0  0
 18 43  1  0  0  0  0
 20 26  1  0  0  0  0
 20 30  1  0  0  0  0
 28 29  1  0  0  0  0
 28 33  1  0  0  0  0
 28 34  1  0  0  0  0
 28 35  1  0  0  0  0
 29 30  1  0  0  0  0
 29 36  1  0  0  0  0
 29 37  1  0  0  0  0
 30 31  1  0  0  0  0
 30 38  1  0  0  0  0
 31 32  1  0  0  0  0
 31 39  1  0  0  0  0
 31 40  1  0  0  0  0
 32 33  1  0  0  0  0
 32 41  1  0  0  0  0
 32 42  1  0  0  0  0
 43 44  1  0  0  0  0
 43 45  1  0  0  0  0
 43 46  1  0  0  0  0
 46 47  1  0  0  0  0
 46 49  1  0  0  0  0
 46 53  1  0  0  0  0
 47 48  1  0  0  0  0
 49 50  1  0  0  0  0
 49 51  1  0  0  0  0
 49 52  1  0  0  0  0
 53 54  1  0  0  0  0
 53 55  1  0  0  0  0
 53 56  1  0  0  0  0
M  END
$$$$
