45
 OpenBabel02232411163D
Structure written by MMmdl.
 48 51  0  0  0  0  0  0  0  0999 V2000
    3.9060  -50.0740    6.1480 O   0  0  0  0  0  0  0  0  0  0  0  0
    3.1210  -49.2370    6.6380 C   0  0  0  0  0  0  0  0  0  0  0  0
    3.4190  -48.1860    7.2160 O   0  5  0  0  0  0  0  0  0  0  0  0
    1.6300  -49.6110    6.4960 C   0  0  0  0  0  0  0  0  0  0  0  0
   -0.1690  -51.0170    6.6700 C   0  0  0  0  0  0  0  0  0  0  0  0
   -1.0630  -52.0540    6.9830 C   0  0  0  0  0  0  0  0  0  0  0  0
   -2.3780  -51.9160    6.5620 C   0  0  0  0  0  0  0  0  0  0  0  0
   -2.7900  -50.7890    5.8150 C   0  0  0  0  0  0  0  0  0  0  0  0
   -1.9030  -49.7760    5.4780 C   0  0  0  0  0  0  0  0  0  0  0  0
   -0.5790  -49.8400    5.9410 C   0  0  0  0  0  0  0  0  0  0  0  0
    0.5650  -48.9540    5.8860 C   0  0  0  0  0  0  0  0  0  0  0  0
    0.5320  -47.5710    5.3390 C   0  0  0  0  0  0  0  0  0  0  0  0
   -0.1310  -46.5650    6.3020 C   0  0  0  0  0  0  0  0  0  0  0  0
   -1.6440  -46.7720    6.3500 C   0  0  0  0  0  0  0  0  0  0  0  0
   -2.1630  -45.6850    7.1930 O   0  0  0  0  0  0  0  0  0  0  0  0
   -3.4520  -45.2850    6.8870 C   0  0  0  0  0  0  0  0  0  0  0  0
   -5.9860  -44.2230    6.4910 C   0  0  0  0  0  0  0  0  0  0  0  0
   -4.9890  -44.0020    5.5440 C   0  0  0  0  0  0  0  0  0  0  0  0
   -3.7090  -44.5230    5.7420 C   0  0  0  0  0  0  0  0  0  0  0  0
   -0.7470  -52.9350    7.5420 H   0  0  0  0  0  0  0  0  0  0  0  0
   -3.1130  -52.6840    6.8050 H   0  0  0  0  0  0  0  0  0  0  0  0
   -3.8330  -50.7180    5.5030 H   0  0  0  0  0  0  0  0  0  0  0  0
   -2.2460  -48.9520    4.8520 H   0  0  0  0  0  0  0  0  0  0  0  0
   -0.0550  -47.5650    4.3890 H   0  0  0  0  0  0  0  0  0  0  0  0
    1.5660  -47.2080    5.1190 H   0  0  0  0  0  0  0  0  0  0  0  0
    0.2840  -46.6740    7.3300 H   0  0  0  0  0  0  0  0  0  0  0  0
    0.0740  -45.5250    5.9580 H   0  0  0  0  0  0  0  0  0  0  0  0
   -2.1160  -46.7110    5.3470 H   0  0  0  0  0  0  0  0  0  0  0  0
   -1.9360  -47.6930    6.9020 H   0  0  0  0  0  0  0  0  0  0  0  0
   -2.9370  -44.3270    5.0100 H   0  0  0  0  0  0  0  0  0  0  0  0
   -5.7260  -45.0020    7.6330 C   0  0  0  0  0  0  0  0  0  0  0  0
   -4.4700  -45.6020    7.8160 C   0  0  0  0  0  0  0  0  0  0  0  0
   -4.1930  -46.6080    8.8960 C   0  0  0  0  0  0  0  0  0  0  0  0
   -5.4090  -46.9220    9.7790 C   0  0  0  0  0  0  0  0  0  0  0  0
   -6.3120  -45.7000    9.9840 C   0  0  0  0  0  0  0  0  0  0  0  0
   -6.8310  -45.1790    8.6370 C   0  0  0  0  0  0  0  0  0  0  0  0
   -5.2060  -43.4180    4.6490 H   0  0  0  0  0  0  0  0  0  0  0  0
   -6.9790  -43.8010    6.3420 H   0  0  0  0  0  0  0  0  0  0  0  0
   -3.8760  -47.5630    8.3980 H   0  0  0  0  0  0  0  0  0  0  0  0
   -3.3480  -46.2630    9.5350 H   0  0  0  0  0  0  0  0  0  0  0  0
   -5.9980  -47.7330    9.2940 H   0  0  0  0  0  0  0  0  0  0  0  0
   -5.0600  -47.3020   10.7630 H   0  0  0  0  0  0  0  0  0  0  0  0
   -5.7400  -44.8880   10.4820 H   0  0  0  0  0  0  0  0  0  0  0  0
   -7.1780  -45.9720   10.6280 H   0  0  0  0  0  0  0  0  0  0  0  0
   -7.3350  -44.1990    8.7870 H   0  0  0  0  0  0  0  0  0  0  0  0
   -7.5890  -45.8840    8.2180 H   0  0  0  0  0  0  0  0  0  0  0  0
    1.1910  -50.8580    6.9810 N   0  0  0  0  0  0  0  0  0  0  0  0
    1.7370  -51.5650    7.4620 H   0  0  0  0  0  0  0  0  0  0  0  0
  1  2  2  0  0  0  0
  2  3  1  0  0  0  0
  2  4  1  0  0  0  0
  4 11  2  0  0  0  0
  4 47  1  0  0  0  0
  5  6  2  0  0  0  0
  5 10  1  0  0  0  0
  5 47  1  0  0  0  0
  6  7  1  0  0  0  0
  6 20  1  0  0  0  0
  7  8  2  0  0  0  0
  7 21  1  0  0  0  0
  8  9  1  0  0  0  0
  8 22  1  0  0  0  0
  9 10  2  0  0  0  0
  9 23  1  0  0  0  0
 10 11  1  0  0  0  0
 11 12  1  0  0  0  0
 12 24  1  0  0  0  0
 12 25  1  0  0  0  0
 12 13  1  0  0  0  0
 13 14  1  0  0  0  0
 13 26  1  0  0  0  0
 13 27  1  0  0  0  0
 14 15  1  0  0  0  0
 14 28  1  0  0  0  0
 14 29  1  0  0  0  0
 15 16  1  0  0  0  0
 16 19  2  0  0  0  0
 16 32  1  0  0  0  0
 17 18  2  0  0  0  0
 17 31  1  0  0  0  0
 17 38  1  0  0  0  0
 18 19  1  0  0  0  0
 18 37  1  0  0  0  0
 19 30  1  0  0  0  0
 31 32  2  0  0  0  0
 31 36  1  0  0  0  0
 32 33  1  0  0  0  0
 33 34  1  0  0  0  0
 33 39  1  0  0  0  0
 33 40  1  0  0  0  0
 34 35  1  0  0  0  0
 34 41  1  0  0  0  0
 34 42  1  0  0  0  0
 35 36  1  0  0  0  0
 35 43  1  0  0  0  0
 35 44  1  0  0  0  0
 36 45  1  0  0  0  0
 36 46  1  0  0  0  0
 47 48  1  0  0  0  0
M  CHG  1   3  -1
M  END
$$$$
