18639-1
 OpenBabel02232411163D
Structure written by MMmdl.
 48 49  0  0  0  0  0  0  0  0999 V2000
   23.2020   10.7860   29.0630 C   0  0  0  0  0  0  0  0  0  0  0  0
   23.4850   11.0280   30.5310 C   0  0  0  0  0  0  0  0  0  0  0  0
   22.2220   11.1410   31.2920 O   0  0  0  0  0  0  0  0  0  0  0  0
   21.5600   10.0140   31.6360 C   0  0  0  0  0  0  0  0  0  0  0  0
   22.0260    8.8150   31.2150 N   0  0  0  0  0  0  0  0  0  0  0  0
   21.2810    7.6910   31.5290 C   0  0  0  0  0  0  0  0  0  0  0  0
   20.1150    7.7460   32.2840 C   0  0  0  0  0  0  0  0  0  0  0  0
   19.6470    9.0060   32.7460 C   0  0  0  0  0  0  0  0  0  0  0  0
   18.4940    9.0640   33.4850 N   0  0  0  0  0  0  0  0  0  0  0  0
   20.3780   10.1920   32.4140 C   0  0  0  0  0  0  0  0  0  0  0  0
   19.9850   11.4980   32.7770 C   0  0  0  0  0  0  0  0  0  0  0  0
   19.7140   12.5950   33.0360 N   0  0  0  0  0  0  0  0  0  0  0  0
   21.8570    6.5230   30.9780 N   0  0  0  0  0  0  0  0  0  0  0  0
   21.2600    5.2500   30.8850 C   0  0  0  0  0  0  0  0  0  0  0  0
   20.1660    4.9990   31.3420 O   0  0  0  0  0  0  0  0  0  0  0  0
   22.0890    4.2530   30.0830 C   0  0  0  0  0  0  0  0  0  0  0  0
   23.4620    3.9980   30.6330 C   0  0  0  0  0  0  0  0  0  0  0  0
   24.5500    4.8660   30.3010 C   0  0  0  0  0  0  0  0  0  0  0  0
   24.1810    5.9060   29.4570 O   0  0  0  0  0  0  0  0  0  0  0  0
   25.1210    7.0050   29.2950 C   0  0  0  0  0  0  0  0  0  0  0  0
   25.8350    4.6370   30.7690 C   0  0  0  0  0  0  0  0  0  0  0  0
   26.0800    3.5290   31.6070 C   0  0  0  0  0  0  0  0  0  0  0  0
   27.4370    3.2870   32.1030 N   0  3  0  0  0  0  0  0  0  0  0  0
   27.5810    2.5130   33.0370 O   0  5  0  0  0  0  0  0  0  0  0  0
   28.3710    3.8620   31.5580 O   0  0  0  0  0  0  0  0  0  0  0  0
   25.0160    2.6590   31.9420 C   0  0  0  0  0  0  0  0  0  0  0  0
   23.7160    2.9000   31.4390 C   0  0  0  0  0  0  0  0  0  0  0  0
   25.3770    1.6290   32.7590 O   0  0  0  0  0  0  0  0  0  0  0  0
   24.3890    0.5860   33.0130 C   0  0  0  0  0  0  0  0  0  0  0  0
   24.1600   10.8420   28.4900 H   0  0  0  0  0  0  0  0  0  0  0  0
   22.5080   11.5530   28.6530 H   0  0  0  0  0  0  0  0  0  0  0  0
   22.7570    9.7770   28.8990 H   0  0  0  0  0  0  0  0  0  0  0  0
   23.9000   12.0470   30.7190 H   0  0  0  0  0  0  0  0  0  0  0  0
   24.1180   10.2260   30.9760 H   0  0  0  0  0  0  0  0  0  0  0  0
   19.5460    6.8420   32.5100 H   0  0  0  0  0  0  0  0  0  0  0  0
   17.9920    8.1980   33.7590 H   0  0  0  0  0  0  0  0  0  0  0  0
   18.1040    9.9550   33.7950 H   0  0  0  0  0  0  0  0  0  0  0  0
   22.7780    6.6710   30.4930 H   0  0  0  0  0  0  0  0  0  0  0  0
   21.5240    3.2840   30.0320 H   0  0  0  0  0  0  0  0  0  0  0  0
   22.1900    4.6620   29.0380 H   0  0  0  0  0  0  0  0  0  0  0  0
   25.4390    7.3980   30.2850 H   0  0  0  0  0  0  0  0  0  0  0  0
   25.9770    6.6630   28.6760 H   0  0  0  0  0  0  0  0  0  0  0  0
   24.4930    7.7490   28.7530 H   0  0  0  0  0  0  0  0  0  0  0  0
   26.6680    5.2930   30.4900 H   0  0  0  0  0  0  0  0  0  0  0  0
   22.9080    2.2070   31.6830 H   0  0  0  0  0  0  0  0  0  0  0  0
   24.9850   -0.1390   33.6160 H   0  0  0  0  0  0  0  0  0  0  0  0
   23.5440    0.9970   33.6040 H   0  0  0  0  0  0  0  0  0  0  0  0
   24.0590    0.1310   32.0540 H   0  0  0  0  0  0  0  0  0  0  0  0
  1  2  1  0  0  0  0
  1 30  1  0  0  0  0
  1 31  1  0  0  0  0
  1 32  1  0  0  0  0
  2  3  1  0  0  0  0
  2 33  1  0  0  0  0
  2 34  1  0  0  0  0
  3  4  1  0  0  0  0
  4 10  2  0  0  0  0
  4  5  1  0  0  0  0
  5  6  2  0  0  0  0
  6  7  1  0  0  0  0
  6 13  1  0  0  0  0
  7  8  2  0  0  0  0
  7 35  1  0  0  0  0
  8  9  1  0  0  0  0
  8 10  1  0  0  0  0
  9 36  1  0  0  0  0
  9 37  1  0  0  0  0
 10 11  1  0  0  0  0
 11 12  3  0  0  0  0
 13 14  1  0  0  0  0
 13 38  1  0  0  0  0
 14 15  2  0  0  0  0
 14 16  1  0  0  0  0
 16 17  1  0  0  0  0
 16 39  1  0  0  0  0
 16 40  1  0  0  0  0
 17 27  2  0  0  0  0
 17 18  1  0  0  0  0
 18 19  1  0  0  0  0
 18 21  2  0  0  0  0
 19 20  1  0  0  0  0
 20 41  1  0  0  0  0
 20 42  1  0  0  0  0
 20 43  1  0  0  0  0
 21 22  1  0  0  0  0
 21 44  1  0  0  0  0
 22 23  1  0  0  0  0
 22 26  2  0  0  0  0
 23 24  1  0  0  0  0
 23 25  2  0  0  0  0
 26 27  1  0  0  0  0
 26 28  1  0  0  0  0
 27 45  1  0  0  0  0
 28 29  1  0  0  0  0
 29 46  1  0  0  0  0
 29 47  1  0  0  0  0
 29 48  1  0  0  0  0
M  CHG  2  23   1  24  -1
M  END
$$$$
