p38a_2o
 OpenBabel02232411163D
Structure written by MMmdl.
 55 58  0  0  0  0  0  0  0  0999 V2000
   36.3590   35.9280   15.9700 C   0  0  0  0  0  0  0  0  0  0  0  0
   34.1880   35.0150   21.3840 C   0  0  0  0  0  0  0  0  0  0  0  0
   35.6310   35.4820   17.0690 C   0  0  0  0  0  0  0  0  0  0  0  0
   33.9410   39.0990   23.9640 C   0  0  0  0  0  0  0  0  0  0  0  0
   34.6430   37.8450   21.6170 C   0  0  0  0  0  0  0  0  0  0  0  0
   35.1270   37.1500   20.4550 C   0  0  0  0  0  0  0  0  0  0  0  0
   37.6510   36.4050   16.2290 C   0  0  0  0  0  0  0  0  0  0  0  0
   38.2310   36.4080   17.5010 C   0  0  0  0  0  0  0  0  0  0  0  0
   37.4700   35.9800   18.5930 C   0  0  0  0  0  0  0  0  0  0  0  0
   34.0290   37.1260   22.6820 C   0  0  0  0  0  0  0  0  0  0  0  0
   34.7640   39.2530   21.7750 C   0  0  0  0  0  0  0  0  0  0  0  0
   34.9480   35.8110   20.3820 C   0  0  0  0  0  0  0  0  0  0  0  0
   36.1680   35.5190   18.3730 C   0  0  0  0  0  0  0  0  0  0  0  0
   34.4100   34.9900   16.9120 F   0  0  0  0  0  0  0  0  0  0  0  0
   35.3690   34.9480   19.3720 O   0  0  0  0  0  0  0  0  0  0  0  0
   34.4180   39.8920   22.9010 N   0  0  0  0  0  0  0  0  0  0  0  0
   33.9200   33.8390   21.2760 O   0  0  0  0  0  0  0  0  0  0  0  0
   33.7240   35.7580   22.5300 N   0  0  0  0  0  0  0  0  0  0  0  0
   33.7060   37.7410   23.8650 N   0  0  0  0  0  0  0  0  0  0  0  0
   33.6270   39.7490   25.1390 N   0  0  0  0  0  0  0  0  0  0  0  0
   35.9390   35.9340   14.9610 H   0  0  0  0  0  0  0  0  0  0  0  0
   35.6360   37.7320   19.6820 H   0  0  0  0  0  0  0  0  0  0  0  0
   39.2540   36.7690   17.6450 H   0  0  0  0  0  0  0  0  0  0  0  0
   37.8860   36.0270   19.6020 H   0  0  0  0  0  0  0  0  0  0  0  0
   35.1590   39.8640   20.9470 H   0  0  0  0  0  0  0  0  0  0  0  0
   33.8350   40.7670   25.2150 H   0  0  0  0  0  0  0  0  0  0  0  0
   38.3450   36.9100   15.2130 F   0  0  0  0  0  0  0  0  0  0  0  0
   32.5510   39.1520   28.7540 C   0  0  0  0  0  0  0  0  0  0  0  0
   32.5390   39.7590   27.3460 C   0  0  0  0  0  0  0  0  0  0  0  0
   33.5550   39.0260   26.4460 C   0  0  0  0  0  0  0  0  0  0  0  0
   34.9510   39.0050   27.1110 C   0  0  0  0  0  0  0  0  0  0  0  0
   34.8500   38.4440   28.5360 C   0  0  0  0  0  0  0  0  0  0  0  0
   33.8790   39.1640   29.3270 O   0  0  0  0  0  0  0  0  0  0  0  0
   32.1750   38.1030   28.7430 H   0  0  0  0  0  0  0  0  0  0  0  0
   31.9820   39.7870   29.4720 H   0  0  0  0  0  0  0  0  0  0  0  0
   32.8010   40.8430   27.4060 H   0  0  0  0  0  0  0  0  0  0  0  0
   31.5180   39.6670   26.9050 H   0  0  0  0  0  0  0  0  0  0  0  0
   33.2090   37.9700   26.2680 H   0  0  0  0  0  0  0  0  0  0  0  0
   35.6430   38.3630   26.5170 H   0  0  0  0  0  0  0  0  0  0  0  0
   35.3710   40.0390   27.1430 H   0  0  0  0  0  0  0  0  0  0  0  0
   34.5790   37.3630   28.5160 H   0  0  0  0  0  0  0  0  0  0  0  0
   35.7940   38.6150   29.1020 H   0  0  0  0  0  0  0  0  0  0  0  0
   32.8210   35.0720   23.5230 C   0  0  0  0  0  0  0  0  0  0  0  0
   32.1160   35.8530   23.9350 H   0  0  0  0  0  0  0  0  0  0  0  0
   32.2420   34.2950   22.9470 H   0  0  0  0  0  0  0  0  0  0  0  0
   33.5870   34.4170   24.6730 C   0  0  0  0  0  0  0  0  0  0  0  0
   34.3570   33.6970   24.2860 H   0  0  0  0  0  0  0  0  0  0  0  0
   34.1710   35.2050   25.2310 H   0  0  0  0  0  0  0  0  0  0  0  0
   32.5210   33.5730   25.8110 S   0  0  0  0  0  0  0  0  0  0  0  0
   31.7840   32.5000   25.1020 O   0  0  0  0  0  0  0  0  0  0  0  0
   31.5720   34.5100   26.4430 O   0  0  0  0  0  0  0  0  0  0  0  0
   33.5800   32.9060   27.0130 C   0  0  0  0  0  0  0  0  0  0  0  0
   34.2670   33.6830   27.4470 H   0  0  0  0  0  0  0  0  0  0  0  0
   33.0210   32.4690   27.8800 H   0  0  0  0  0  0  0  0  0  0  0  0
   34.2370   32.0960   26.6120 H   0  0  0  0  0  0  0  0  0  0  0  0
  1  3  2  0  0  0  0
  1  7  1  0  0  0  0
  1 21  1  0  0  0  0
  2 12  1  0  0  0  0
  2 17  2  0  0  0  0
  2 18  1  0  0  0  0
  3 13  1  0  0  0  0
  3 14  1  0  0  0  0
  4 16  2  0  0  0  0
  4 19  1  0  0  0  0
  4 20  1  0  0  0  0
  5  6  1  0  0  0  0
  5 10  1  0  0  0  0
  5 11  2  0  0  0  0
  6 12  2  0  0  0  0
  6 22  1  0  0  0  0
  7  8  2  0  0  0  0
  7 27  1  0  0  0  0
  8  9  1  0  0  0  0
  8 23  1  0  0  0  0
  9 13  2  0  0  0  0
  9 24  1  0  0  0  0
 10 18  1  0  0  0  0
 10 19  2  0  0  0  0
 11 16  1  0  0  0  0
 11 25  1  0  0  0  0
 12 15  1  0  0  0  0
 13 15  1  0  0  0  0
 18 43  1  0  0  0  0
 20 26  1  0  0  0  0
 20 30  1  0  0  0  0
 28 29  1  0  0  0  0
 28 33  1  0  0  0  0
 28 34  1  0  0  0  0
 28 35  1  0  0  0  0
 29 30  1  0  0  0  0
 29 36  1  0  0  0  0
 29 37  1  0  0  0  0
 30 31  1  0  0  0  0
 30 38  1  0  0  0  0
 31 32  1  0  0  0  0
 31 39  1  0  0  0  0
 31 40  1  0  0  0  0
 32 33  1  0  0  0  0
 32 41  1  0  0  0  0
 32 42  1  0  0  0  0
 43 44  1  0  0  0  0
 43 45  1  0  0  0  0
 43 46  1  0  0  0  0
 46 47  1  0  0  0  0
 46 48  1  0  0  0  0
 46 49  1  0  0  0  0
 49 50  2  0  0  0  0
 49 51  2  0  0  0  0
 49 52  1  0  0  0  0
 52 53  1  0  0  0  0
 52 54  1  0  0  0  0
 52 55  1  0  0  0  0
M  END
$$$$
