20
 OpenBabel02232411153D
Structure written by MMmdl.
 49 52  0  0  0  0  0  0  0  0999 V2000
    1.8340   28.9890    6.7730 C   0  0  0  0  0  0  0  0  0  0  0  0
   -1.6180   31.6170    7.9610 C   0  0  0  0  0  0  0  0  0  0  0  0
   -0.0860   26.1680    8.9610 C   0  0  0  0  0  0  0  0  0  0  0  0
   -0.8980   25.4240   10.0260 C   0  0  0  0  0  0  0  0  0  0  0  0
   -0.7210   23.9090    9.7740 C   0  0  0  0  0  0  0  0  0  0  0  0
   -1.4250   23.0830   10.8590 C   0  0  0  0  0  0  0  0  0  0  0  0
   -0.9450   23.4720   12.2660 C   0  0  0  0  0  0  0  0  0  0  0  0
   -1.1260   24.9760   12.5210 C   0  0  0  0  0  0  0  0  0  0  0  0
   -0.4270   25.8150   11.4410 C   0  0  0  0  0  0  0  0  0  0  0  0
    4.0140   25.2280    7.6390 C   0  0  0  0  0  0  0  0  0  0  0  0
    4.9830   24.8410    6.7090 C   0  0  0  0  0  0  0  0  0  0  0  0
    5.3370   25.7210    5.6790 C   0  0  0  0  0  0  0  0  0  0  0  0
    4.6980   26.9500    5.5390 C   0  0  0  0  0  0  0  0  0  0  0  0
    1.1000   28.0430    7.4850 N   0  0  0  0  0  0  0  0  0  0  0  0
   -0.0850   28.3830    8.0500 C   0  0  0  0  0  0  0  0  0  0  0  0
   -0.7520   27.4860    8.7970 O   0  0  0  0  0  0  0  0  0  0  0  0
   -0.5980   29.6930    7.8820 C   0  0  0  0  0  0  0  0  0  0  0  0
   -1.7360   30.3500    8.3630 N   0  0  0  0  0  0  0  0  0  0  0  0
   -0.4060   31.8430    7.2160 N   0  0  0  0  0  0  0  0  0  0  0  0
    0.2450   30.6160    7.1370 C   0  0  0  0  0  0  0  0  0  0  0  0
    1.4400   30.2980    6.5400 N   0  0  0  0  0  0  0  0  0  0  0  0
    3.0650   28.5940    6.2670 N   0  0  0  0  0  0  0  0  0  0  0  0
    3.7200   27.3360    6.4830 C   0  0  0  0  0  0  0  0  0  0  0  0
    3.4440   26.5070    7.5770 C   0  0  0  0  0  0  0  0  0  0  0  0
   -2.3080   32.4280    8.1710 H   0  0  0  0  0  0  0  0  0  0  0  0
    0.9580   26.3420    9.3040 H   0  0  0  0  0  0  0  0  0  0  0  0
   -0.1290   25.6760    7.9690 H   0  0  0  0  0  0  0  0  0  0  0  0
   -1.9790   25.6870    9.9330 H   0  0  0  0  0  0  0  0  0  0  0  0
   -1.1460   23.6440    8.7800 H   0  0  0  0  0  0  0  0  0  0  0  0
    0.3680   23.6580    9.7860 H   0  0  0  0  0  0  0  0  0  0  0  0
   -2.5200   23.2600   10.7940 H   0  0  0  0  0  0  0  0  0  0  0  0
   -1.2230   21.9990   10.6940 H   0  0  0  0  0  0  0  0  0  0  0  0
   -1.5260   22.8960   13.0240 H   0  0  0  0  0  0  0  0  0  0  0  0
    0.1330   23.2110   12.3710 H   0  0  0  0  0  0  0  0  0  0  0  0
   -2.2120   25.2200   12.5490 H   0  0  0  0  0  0  0  0  0  0  0  0
   -0.6860   25.2330   13.5130 H   0  0  0  0  0  0  0  0  0  0  0  0
    0.6750   25.6520   11.5300 H   0  0  0  0  0  0  0  0  0  0  0  0
   -0.6400   26.8930   11.6180 H   0  0  0  0  0  0  0  0  0  0  0  0
    5.4520   23.8600    6.7740 H   0  0  0  0  0  0  0  0  0  0  0  0
    6.1100   25.4360    4.9580 H   0  0  0  0  0  0  0  0  0  0  0  0
    4.9550   27.6010    4.7030 H   0  0  0  0  0  0  0  0  0  0  0  0
   -0.1320   32.7230    6.7560 H   0  0  0  0  0  0  0  0  0  0  0  0
    3.5850   29.2550    5.6440 H   0  0  0  0  0  0  0  0  0  0  0  0
    2.7680   26.8270    8.3700 H   0  0  0  0  0  0  0  0  0  0  0  0
    3.4580   24.2820    8.6760 C   0  0  0  0  0  0  0  0  0  0  0  0
    3.3420   24.7820    9.6660 H   0  0  0  0  0  0  0  0  0  0  0  0
    2.4820   23.8660    8.3260 H   0  0  0  0  0  0  0  0  0  0  0  0
    4.2800   23.1130    8.8280 O   0  0  0  0  0  0  0  0  0  0  0  0
    4.8560   23.2920    9.6790 H   0  0  0  0  0  0  0  0  0  0  0  0
  1 14  2  0  0  0  0
  1 21  1  0  0  0  0
  1 22  1  0  0  0  0
  2 18  2  0  0  0  0
  2 19  1  0  0  0  0
  2 25  1  0  0  0  0
  3  4  1  0  0  0  0
  3 16  1  0  0  0  0
  3 26  1  0  0  0  0
  3 27  1  0  0  0  0
  4  5  1  0  0  0  0
  4  9  1  0  0  0  0
  4 28  1  0  0  0  0
  5  6  1  0  0  0  0
  5 29  1  0  0  0  0
  5 30  1  0  0  0  0
  6  7  1  0  0  0  0
  6 31  1  0  0  0  0
  6 32  1  0  0  0  0
  7  8  1  0  0  0  0
  7 33  1  0  0  0  0
  7 34  1  0  0  0  0
  8  9  1  0  0  0  0
  8 35  1  0  0  0  0
  8 36  1  0  0  0  0
  9 37  1  0  0  0  0
  9 38  1  0  0  0  0
 10 11  2  0  0  0  0
 10 24  1  0  0  0  0
 10 45  1  0  0  0  0
 11 12  1  0  0  0  0
 11 39  1  0  0  0  0
 12 13  2  0  0  0  0
 12 40  1  0  0  0  0
 13 23  1  0  0  0  0
 13 41  1  0  0  0  0
 14 15  1  0  0  0  0
 15 16  1  0  0  0  0
 15 17  2  0  0  0  0
 17 18  1  0  0  0  0
 17 20  1  0  0  0  0
 19 20  1  0  0  0  0
 19 42  1  0  0  0  0
 20 21  2  0  0  0  0
 22 23  1  0  0  0  0
 22 43  1  0  0  0  0
 23 24  2  0  0  0  0
 24 44  1  0  0  0  0
 45 46  1  0  0  0  0
 45 47  1  0  0  0  0
 45 48  1  0  0  0  0
 48 49  1  0  0  0  0
M  END
$$$$
