p38a_2t
 OpenBabel02232411163D
Structure written by MMmdl.
 47 50  0  0  0  0  0  0  0  0999 V2000
   38.2970   36.5290   17.1720 C   0  0  0  0  0  0  0  0  0  0  0  0
   34.4860   35.0820   21.2220 C   0  0  0  0  0  0  0  0  0  0  0  0
   37.5250   36.0710   18.2370 C   0  0  0  0  0  0  0  0  0  0  0  0
   33.9180   39.1990   23.7230 C   0  0  0  0  0  0  0  0  0  0  0  0
   34.6030   37.9600   21.3500 C   0  0  0  0  0  0  0  0  0  0  0  0
   35.0450   37.2860   20.1600 C   0  0  0  0  0  0  0  0  0  0  0  0
   37.6410   36.6660   15.9410 C   0  0  0  0  0  0  0  0  0  0  0  0
   36.2960   36.3430   15.7440 C   0  0  0  0  0  0  0  0  0  0  0  0
   35.5460   35.8730   16.8270 C   0  0  0  0  0  0  0  0  0  0  0  0
   34.1480   37.2180   22.4760 C   0  0  0  0  0  0  0  0  0  0  0  0
   34.6160   39.3760   21.4830 C   0  0  0  0  0  0  0  0  0  0  0  0
   35.0210   35.9340   20.1300 C   0  0  0  0  0  0  0  0  0  0  0  0
   36.1680   35.7260   18.0700 C   0  0  0  0  0  0  0  0  0  0  0  0
   38.0640   35.9580   19.4430 F   0  0  0  0  0  0  0  0  0  0  0  0
   35.4680   35.0960   19.1090 O   0  0  0  0  0  0  0  0  0  0  0  0
   34.2930   40.0030   22.6210 N   0  0  0  0  0  0  0  0  0  0  0  0
   34.4180   33.8740   21.2190 O   0  0  0  0  0  0  0  0  0  0  0  0
   34.0240   35.8150   22.3810 N   0  0  0  0  0  0  0  0  0  0  0  0
   33.8270   37.8200   23.6660 N   0  0  0  0  0  0  0  0  0  0  0  0
   33.6610   39.8750   24.8860 N   0  0  0  0  0  0  0  0  0  0  0  0
   39.3470   36.8080   17.2980 H   0  0  0  0  0  0  0  0  0  0  0  0
   35.4000   37.8930   19.3250 H   0  0  0  0  0  0  0  0  0  0  0  0
   35.8180   36.4710   14.7700 H   0  0  0  0  0  0  0  0  0  0  0  0
   34.4840   35.6410   16.6960 H   0  0  0  0  0  0  0  0  0  0  0  0
   34.8920   40.0050   20.6210 H   0  0  0  0  0  0  0  0  0  0  0  0
   33.7140   40.9140   24.8820 H   0  0  0  0  0  0  0  0  0  0  0  0
   38.3250   37.1700   14.9170 F   0  0  0  0  0  0  0  0  0  0  0  0
   33.6780   37.8460   28.1540 C   0  0  0  0  0  0  0  0  0  0  0  0
   34.2170   38.3590   26.8120 C   0  0  0  0  0  0  0  0  0  0  0  0
   33.1810   39.3120   26.1840 C   0  0  0  0  0  0  0  0  0  0  0  0
   31.8090   38.6220   26.0570 C   0  0  0  0  0  0  0  0  0  0  0  0
   31.3850   38.0630   27.4230 C   0  0  0  0  0  0  0  0  0  0  0  0
   32.3950   37.2000   27.9930 O   0  0  0  0  0  0  0  0  0  0  0  0
   33.5760   38.6780   28.8900 H   0  0  0  0  0  0  0  0  0  0  0  0
   34.3100   37.0210   28.5580 H   0  0  0  0  0  0  0  0  0  0  0  0
   34.4070   37.4970   26.1280 H   0  0  0  0  0  0  0  0  0  0  0  0
   35.1780   38.9030   26.9770 H   0  0  0  0  0  0  0  0  0  0  0  0
   33.0680   40.2200   26.8500 H   0  0  0  0  0  0  0  0  0  0  0  0
   31.0470   39.3560   25.7020 H   0  0  0  0  0  0  0  0  0  0  0  0
   31.8610   37.7900   25.3140 H   0  0  0  0  0  0  0  0  0  0  0  0
   31.1690   38.8860   28.1410 H   0  0  0  0  0  0  0  0  0  0  0  0
   30.5130   37.3750   27.3220 H   0  0  0  0  0  0  0  0  0  0  0  0
   33.4570   35.0380   23.5250 C   0  0  0  0  0  0  0  0  0  0  0  0
   32.7630   35.6920   24.1400 H   0  0  0  0  0  0  0  0  0  0  0  0
   32.8340   34.1790   23.1240 H   0  0  0  0  0  0  0  0  0  0  0  0
   34.5370   34.5270   24.3690 C   0  0  0  0  0  0  0  0  0  0  0  0
   35.4040   34.1260   25.0170 N   0  0  0  0  0  0  0  0  0  0  0  0
  1  3  2  0  0  0  0
  1  7  1  0  0  0  0
  1 21  1  0  0  0  0
  2 12  1  0  0  0  0
  2 17  2  0  0  0  0
  2 18  1  0  0  0  0
  3 13  1  0  0  0  0
  3 14  1  0  0  0  0
  4 16  2  0  0  0  0
  4 19  1  0  0  0  0
  4 20  1  0  0  0  0
  5  6  1  0  0  0  0
  5 10  1  0  0  0  0
  5 11  2  0  0  0  0
  6 12  2  0  0  0  0
  6 22  1  0  0  0  0
  7  8  2  0  0  0  0
  7 27  1  0  0  0  0
  8  9  1  0  0  0  0
  8 23  1  0  0  0  0
  9 13  2  0  0  0  0
  9 24  1  0  0  0  0
 10 18  1  0  0  0  0
 10 19  2  0  0  0  0
 11 16  1  0  0  0  0
 11 25  1  0  0  0  0
 12 15  1  0  0  0  0
 13 15  1  0  0  0  0
 18 43  1  0  0  0  0
 20 26  1  0  0  0  0
 20 30  1  0  0  0  0
 28 29  1  0  0  0  0
 28 33  1  0  0  0  0
 28 34  1  0  0  0  0
 28 35  1  0  0  0  0
 29 30  1  0  0  0  0
 29 36  1  0  0  0  0
 29 37  1  0  0  0  0
 30 31  1  0  0  0  0
 30 38  1  0  0  0  0
 31 32  1  0  0  0  0
 31 39  1  0  0  0  0
 31 40  1  0  0  0  0
 32 33  1  0  0  0  0
 32 41  1  0  0  0  0
 32 42  1  0  0  0  0
 43 44  1  0  0  0  0
 43 45  1  0  0  0  0
 43 46  1  0  0  0  0
 46 47  3  0  0  0  0
M  END
$$$$
