p38a_3flw
 OpenBabel02232411163D
Structure written by MMmdl.
 49 51  0  0  0  0  0  0  0  0999 V2000
   36.3440   36.0230   15.8280 C   0  0  0  0  0  0  0  0  0  0  0  0
   37.6380   36.5240   16.0230 C   0  0  0  0  0  0  0  0  0  0  0  0
   33.8620   39.7720   27.5720 C   0  0  0  0  0  0  0  0  0  0  0  0
   35.3080   39.3290   27.8310 C   0  0  0  0  0  0  0  0  0  0  0  0
   31.7750   39.4360   26.1950 C   0  0  0  0  0  0  0  0  0  0  0  0
   33.9640   35.0210   23.8500 C   0  0  0  0  0  0  0  0  0  0  0  0
   34.4640   35.0400   16.8640 F   0  0  0  0  0  0  0  0  0  0  0  0
   35.6800   35.5600   16.9600 C   0  0  0  0  0  0  0  0  0  0  0  0
   38.2710   37.0430   14.9740 F   0  0  0  0  0  0  0  0  0  0  0  0
   38.2790   36.5400   17.2650 C   0  0  0  0  0  0  0  0  0  0  0  0
   37.5770   36.1020   18.3940 C   0  0  0  0  0  0  0  0  0  0  0  0
   36.2760   35.6160   18.2370 C   0  0  0  0  0  0  0  0  0  0  0  0
   35.5330   35.0340   19.2730 O   0  0  0  0  0  0  0  0  0  0  0  0
   35.1630   35.8890   20.3080 C   0  0  0  0  0  0  0  0  0  0  0  0
   35.2540   37.2380   20.3450 C   0  0  0  0  0  0  0  0  0  0  0  0
   34.8520   37.9250   21.5430 C   0  0  0  0  0  0  0  0  0  0  0  0
   34.8440   39.3400   21.6590 C   0  0  0  0  0  0  0  0  0  0  0  0
   34.5340   39.9810   22.7980 N   0  0  0  0  0  0  0  0  0  0  0  0
   34.5860   35.0630   21.4060 C   0  0  0  0  0  0  0  0  0  0  0  0
   34.3220   33.8850   21.3370 O   0  0  0  0  0  0  0  0  0  0  0  0
   34.3380   35.7860   22.6290 N   0  0  0  0  0  0  0  0  0  0  0  0
   34.4490   37.1820   22.6920 C   0  0  0  0  0  0  0  0  0  0  0  0
   34.1310   37.8070   23.8730 N   0  0  0  0  0  0  0  0  0  0  0  0
   34.2120   39.1850   23.9120 C   0  0  0  0  0  0  0  0  0  0  0  0
   34.0090   39.8300   25.1160 N   0  0  0  0  0  0  0  0  0  0  0  0
   33.2990   39.1780   26.2600 C   0  0  0  0  0  0  0  0  0  0  0  0
   31.0720   39.0100   24.8990 C   0  0  0  0  0  0  0  0  0  0  0  0
   31.1900   37.6100   24.6210 O   0  0  0  0  0  0  0  0  0  0  0  0
   35.8300   39.9360   29.0260 O   0  0  0  0  0  0  0  0  0  0  0  0
   35.8740   36.0200   14.8420 H   0  0  0  0  0  0  0  0  0  0  0  0
   33.2090   39.4350   28.4150 H   0  0  0  0  0  0  0  0  0  0  0  0
   33.8130   40.8890   27.5370 H   0  0  0  0  0  0  0  0  0  0  0  0
   35.3680   38.2220   27.9370 H   0  0  0  0  0  0  0  0  0  0  0  0
   35.9940   39.7120   27.0430 H   0  0  0  0  0  0  0  0  0  0  0  0
   31.3070   38.8960   27.0560 H   0  0  0  0  0  0  0  0  0  0  0  0
   31.6010   40.5320   26.3300 H   0  0  0  0  0  0  0  0  0  0  0  0
   34.5160   35.4260   24.7440 H   0  0  0  0  0  0  0  0  0  0  0  0
   32.8620   35.1070   24.0400 H   0  0  0  0  0  0  0  0  0  0  0  0
   34.2340   33.9390   23.7250 H   0  0  0  0  0  0  0  0  0  0  0  0
   39.3000   36.9170   17.3640 H   0  0  0  0  0  0  0  0  0  0  0  0
   38.0430   36.1670   19.3800 H   0  0  0  0  0  0  0  0  0  0  0  0
   35.6360   37.8360   19.5130 H   0  0  0  0  0  0  0  0  0  0  0  0
   35.0850   39.9620   20.7820 H   0  0  0  0  0  0  0  0  0  0  0  0
   33.9350   40.8690   25.1220 H   0  0  0  0  0  0  0  0  0  0  0  0
   33.5000   38.0730   26.2450 H   0  0  0  0  0  0  0  0  0  0  0  0
   29.9710   39.1550   25.0050 H   0  0  0  0  0  0  0  0  0  0  0  0
   31.4750   39.5780   24.0320 H   0  0  0  0  0  0  0  0  0  0  0  0
   32.1500   37.3890   24.5540 H   0  0  0  0  0  0  0  0  0  0  0  0
   35.2280   39.7330   29.7870 H   0  0  0  0  0  0  0  0  0  0  0  0
  1  2  2  0  0  0  0
  1  8  1  0  0  0  0
  1 30  1  0  0  0  0
  2  9  1  0  0  0  0
  2 10  1  0  0  0  0
  3  4  1  0  0  0  0
  3 26  1  0  0  0  0
  3 31  1  0  0  0  0
  3 32  1  0  0  0  0
  4 29  1  0  0  0  0
  4 33  1  0  0  0  0
  4 34  1  0  0  0  0
  5 26  1  0  0  0  0
  5 27  1  0  0  0  0
  5 35  1  0  0  0  0
  5 36  1  0  0  0  0
  6 21  1  0  0  0  0
  6 37  1  0  0  0  0
  6 38  1  0  0  0  0
  6 39  1  0  0  0  0
  7  8  1  0  0  0  0
  8 12  2  0  0  0  0
 10 11  2  0  0  0  0
 10 40  1  0  0  0  0
 11 12  1  0  0  0  0
 11 41  1  0  0  0  0
 12 13  1  0  0  0  0
 13 14  1  0  0  0  0
 14 15  2  0  0  0  0
 14 19  1  0  0  0  0
 15 16  1  0  0  0  0
 15 42  1  0  0  0  0
 16 17  2  0  0  0  0
 16 22  1  0  0  0  0
 17 18  1  0  0  0  0
 17 43  1  0  0  0  0
 18 24  2  0  0  0  0
 19 20  2  0  0  0  0
 19 21  1  0  0  0  0
 21 22  1  0  0  0  0
 22 23  2  0  0  0  0
 23 24  1  0  0  0  0
 24 25  1  0  0  0  0
 25 26  1  0  0  0  0
 25 44  1  0  0  0  0
 26 45  1  0  0  0  0
 27 28  1  0  0  0  0
 27 46  1  0  0  0  0
 27 47  1  0  0  0  0
 28 48  1  0  0  0  0
 29 49  1  0  0  0  0
M  END
$$$$
