p38a_2aa
 OpenBabel02232411163D
Structure written by MMmdl.
 43 45  0  0  0  0  0  0  0  0999 V2000
   38.2990   36.5490   17.1590 C   0  0  0  0  0  0  0  0  0  0  0  0
   34.4950   35.1310   21.2200 C   0  0  0  0  0  0  0  0  0  0  0  0
   37.5230   36.0950   18.2220 C   0  0  0  0  0  0  0  0  0  0  0  0
   33.7700   39.2550   23.6380 C   0  0  0  0  0  0  0  0  0  0  0  0
   33.0570   39.2090   26.0450 C   0  0  0  0  0  0  0  0  0  0  0  0
   34.5770   38.0130   21.3180 C   0  0  0  0  0  0  0  0  0  0  0  0
   35.0350   37.3330   20.1370 C   0  0  0  0  0  0  0  0  0  0  0  0
   37.6440   36.6960   15.9280 C   0  0  0  0  0  0  0  0  0  0  0  0
   36.2960   36.3870   15.7310 C   0  0  0  0  0  0  0  0  0  0  0  0
   35.5420   35.9180   16.8120 C   0  0  0  0  0  0  0  0  0  0  0  0
   34.1380   37.2620   22.4490 C   0  0  0  0  0  0  0  0  0  0  0  0
   34.5530   39.4290   21.4370 C   0  0  0  0  0  0  0  0  0  0  0  0
   35.0210   35.9810   20.1170 C   0  0  0  0  0  0  0  0  0  0  0  0
   36.1620   35.7640   18.0550 C   0  0  0  0  0  0  0  0  0  0  0  0
   33.5990   35.1090   23.5810 C   0  0  0  0  0  0  0  0  0  0  0  0
   38.0610   35.9720   19.4280 F   0  0  0  0  0  0  0  0  0  0  0  0
   35.4570   35.1410   19.0940 O   0  0  0  0  0  0  0  0  0  0  0  0
   34.1790   40.0620   22.5600 N   0  0  0  0  0  0  0  0  0  0  0  0
   34.3870   33.9250   21.1900 O   0  0  0  0  0  0  0  0  0  0  0  0
   34.0970   35.8600   22.3940 N   0  0  0  0  0  0  0  0  0  0  0  0
   33.7470   37.8780   23.6140 N   0  0  0  0  0  0  0  0  0  0  0  0
   33.2880   39.9110   24.7550 N   0  0  0  0  0  0  0  0  0  0  0  0
   39.3520   36.8150   17.2860 H   0  0  0  0  0  0  0  0  0  0  0  0
   33.4760   40.1020   27.2470 C   0  0  0  0  0  0  0  0  0  0  0  0
   35.3870   37.9360   19.2980 H   0  0  0  0  0  0  0  0  0  0  0  0
   35.8200   36.5200   14.7570 H   0  0  0  0  0  0  0  0  0  0  0  0
   34.4790   35.6930   16.6790 H   0  0  0  0  0  0  0  0  0  0  0  0
   34.8490   40.0550   20.5790 H   0  0  0  0  0  0  0  0  0  0  0  0
   34.2130   35.3690   24.4870 H   0  0  0  0  0  0  0  0  0  0  0  0
   32.5300   35.3850   23.7880 H   0  0  0  0  0  0  0  0  0  0  0  0
   33.6640   34.0050   23.4000 H   0  0  0  0  0  0  0  0  0  0  0  0
   33.4210   40.9350   24.8250 H   0  0  0  0  0  0  0  0  0  0  0  0
   38.3330   37.1970   14.9060 F   0  0  0  0  0  0  0  0  0  0  0  0
   31.5370   38.8840   26.1240 C   0  0  0  0  0  0  0  0  0  0  0  0
   31.1240   38.7680   27.4910 O   0  0  0  0  0  0  0  0  0  0  0  0
   31.4650   37.9230   27.8760 H   0  0  0  0  0  0  0  0  0  0  0  0
   30.9210   39.7330   25.7490 H   0  0  0  0  0  0  0  0  0  0  0  0
   31.3100   37.9400   25.5770 H   0  0  0  0  0  0  0  0  0  0  0  0
   34.7010   40.8050   26.9900 O   0  0  0  0  0  0  0  0  0  0  0  0
   32.6790   40.8410   27.4860 H   0  0  0  0  0  0  0  0  0  0  0  0
   33.7160   39.4610   28.1270 H   0  0  0  0  0  0  0  0  0  0  0  0
   34.4630   41.6100   26.4260 H   0  0  0  0  0  0  0  0  0  0  0  0
   33.6420   38.2480   26.0870 H   0  0  0  0  0  0  0  0  0  0  0  0
  1  3  2  0  0  0  0
  1  8  1  0  0  0  0
  1 23  1  0  0  0  0
  2 13  1  0  0  0  0
  2 19  2  0  0  0  0
  2 20  1  0  0  0  0
  3 14  1  0  0  0  0
  3 16  1  0  0  0  0
  4 18  2  0  0  0  0
  4 21  1  0  0  0  0
  4 22  1  0  0  0  0
  5 22  1  0  0  0  0
  5 24  1  0  0  0  0
  5 34  1  0  0  0  0
  5 43  1  0  0  0  0
  6  7  1  0  0  0  0
  6 11  1  0  0  0  0
  6 12  2  0  0  0  0
  7 13  2  0  0  0  0
  7 25  1  0  0  0  0
  8  9  2  0  0  0  0
  8 33  1  0  0  0  0
  9 10  1  0  0  0  0
  9 26  1  0  0  0  0
 10 14  2  0  0  0  0
 10 27  1  0  0  0  0
 11 20  1  0  0  0  0
 11 21  2  0  0  0  0
 12 18  1  0  0  0  0
 12 28  1  0  0  0  0
 13 17  1  0  0  0  0
 14 17  1  0  0  0  0
 15 20  1  0  0  0  0
 15 29  1  0  0  0  0
 15 30  1  0  0  0  0
 15 31  1  0  0  0  0
 22 32  1  0  0  0  0
 24 39  1  0  0  0  0
 24 40  1  0  0  0  0
 24 41  1  0  0  0  0
 34 35  1  0  0  0  0
 34 37  1  0  0  0  0
 34 38  1  0  0  0  0
 35 36  1  0  0  0  0
 39 42  1  0  0  0  0
M  END
$$$$
