p38a_3flw
 OpenBabel02232411163D
Structure written by MMmdl.
 49 51  0  0  0  0  0  0  0  0999 V2000
   36.4120   36.1360   15.6780 C   0  0  0  0  0  0  0  0  0  0  0  0
   37.6970   36.6740   15.8280 C   0  0  0  0  0  0  0  0  0  0  0  0
   32.5060   39.6670   27.1450 C   0  0  0  0  0  0  0  0  0  0  0  0
   33.8370   40.0660   27.7910 C   0  0  0  0  0  0  0  0  0  0  0  0
   31.2940   38.0940   25.5790 C   0  0  0  0  0  0  0  0  0  0  0  0
   33.3920   34.7770   23.2850 C   0  0  0  0  0  0  0  0  0  0  0  0
   34.6240   35.0470   16.7690 F   0  0  0  0  0  0  0  0  0  0  0  0
   35.8230   35.6120   16.8250 C   0  0  0  0  0  0  0  0  0  0  0  0
   38.2640   37.2340   14.7630 F   0  0  0  0  0  0  0  0  0  0  0  0
   38.3920   36.6840   17.0400 C   0  0  0  0  0  0  0  0  0  0  0  0
   37.7620   36.1890   18.1870 C   0  0  0  0  0  0  0  0  0  0  0  0
   36.4780   35.6500   18.0720 C   0  0  0  0  0  0  0  0  0  0  0  0
   35.8320   34.9910   19.1250 O   0  0  0  0  0  0  0  0  0  0  0  0
   35.2750   35.8080   20.1060 C   0  0  0  0  0  0  0  0  0  0  0  0
   35.3390   37.1550   20.2110 C   0  0  0  0  0  0  0  0  0  0  0  0
   34.7420   37.7880   21.3560 C   0  0  0  0  0  0  0  0  0  0  0  0
   34.7240   39.1970   21.5450 C   0  0  0  0  0  0  0  0  0  0  0  0
   34.2230   39.7860   22.6410 N   0  0  0  0  0  0  0  0  0  0  0  0
   34.5570   34.9270   21.0680 C   0  0  0  0  0  0  0  0  0  0  0  0
   34.3850   33.7360   20.9290 O   0  0  0  0  0  0  0  0  0  0  0  0
   34.0440   35.6020   22.2280 N   0  0  0  0  0  0  0  0  0  0  0  0
   34.1470   36.9960   22.3830 C   0  0  0  0  0  0  0  0  0  0  0  0
   33.6540   37.5610   23.5300 N   0  0  0  0  0  0  0  0  0  0  0  0
   33.6980   38.9390   23.6400 C   0  0  0  0  0  0  0  0  0  0  0  0
   33.1950   39.5280   24.7740 N   0  0  0  0  0  0  0  0  0  0  0  0
   32.6580   38.7350   25.9310 C   0  0  0  0  0  0  0  0  0  0  0  0
   31.0500   36.8150   26.3900 C   0  0  0  0  0  0  0  0  0  0  0  0
   30.7160   37.1310   27.7590 O   0  0  0  0  0  0  0  0  0  0  0  0
   33.6020   40.6660   29.0790 O   0  0  0  0  0  0  0  0  0  0  0  0
   35.8940   36.1460   14.7180 H   0  0  0  0  0  0  0  0  0  0  0  0
   31.8760   39.1260   27.9010 H   0  0  0  0  0  0  0  0  0  0  0  0
   31.9640   40.5910   26.8390 H   0  0  0  0  0  0  0  0  0  0  0  0
   34.4660   39.1790   28.0310 H   0  0  0  0  0  0  0  0  0  0  0  0
   34.3830   40.7990   27.1540 H   0  0  0  0  0  0  0  0  0  0  0  0
   30.4730   38.8250   25.7650 H   0  0  0  0  0  0  0  0  0  0  0  0
   31.2720   37.8200   24.4960 H   0  0  0  0  0  0  0  0  0  0  0  0
   32.7340   35.4120   23.9400 H   0  0  0  0  0  0  0  0  0  0  0  0
   32.7550   33.9860   22.8110 H   0  0  0  0  0  0  0  0  0  0  0  0
   34.1750   34.2980   23.9290 H   0  0  0  0  0  0  0  0  0  0  0  0
   39.4000   37.0980   17.1100 H   0  0  0  0  0  0  0  0  0  0  0  0
   38.2690   36.2490   19.1530 H   0  0  0  0  0  0  0  0  0  0  0  0
   35.8360   37.7890   19.4740 H   0  0  0  0  0  0  0  0  0  0  0  0
   35.1310   39.8590   20.7630 H   0  0  0  0  0  0  0  0  0  0  0  0
   33.2310   40.5580   24.8830 H   0  0  0  0  0  0  0  0  0  0  0  0
   33.4060   37.9250   26.1600 H   0  0  0  0  0  0  0  0  0  0  0  0
   30.2230   36.2220   25.9400 H   0  0  0  0  0  0  0  0  0  0  0  0
   31.9800   36.2040   26.4790 H   0  0  0  0  0  0  0  0  0  0  0  0
   29.7110   37.0260   27.8650 H   0  0  0  0  0  0  0  0  0  0  0  0
   33.0380   41.4930   28.9370 H   0  0  0  0  0  0  0  0  0  0  0  0
  1  2  2  0  0  0  0
  1  8  1  0  0  0  0
  1 30  1  0  0  0  0
  2  9  1  0  0  0  0
  2 10  1  0  0  0  0
  3  4  1  0  0  0  0
  3 26  1  0  0  0  0
  3 31  1  0  0  0  0
  3 32  1  0  0  0  0
  4 29  1  0  0  0  0
  4 33  1  0  0  0  0
  4 34  1  0  0  0  0
  5 26  1  0  0  0  0
  5 27  1  0  0  0  0
  5 35  1  0  0  0  0
  5 36  1  0  0  0  0
  6 21  1  0  0  0  0
  6 37  1  0  0  0  0
  6 38  1  0  0  0  0
  6 39  1  0  0  0  0
  7  8  1  0  0  0  0
  8 12  2  0  0  0  0
 10 11  2  0  0  0  0
 10 40  1  0  0  0  0
 11 12  1  0  0  0  0
 11 41  1  0  0  0  0
 12 13  1  0  0  0  0
 13 14  1  0  0  0  0
 14 15  2  0  0  0  0
 14 19  1  0  0  0  0
 15 16  1  0  0  0  0
 15 42  1  0  0  0  0
 16 17  2  0  0  0  0
 16 22  1  0  0  0  0
 17 18  1  0  0  0  0
 17 43  1  0  0  0  0
 18 24  2  0  0  0  0
 19 20  2  0  0  0  0
 19 21  1  0  0  0  0
 21 22  1  0  0  0  0
 22 23  2  0  0  0  0
 23 24  1  0  0  0  0
 24 25  1  0  0  0  0
 25 26  1  0  0  0  0
 25 44  1  0  0  0  0
 26 45  1  0  0  0  0
 27 28  1  0  0  0  0
 27 46  1  0  0  0  0
 27 47  1  0  0  0  0
 28 48  1  0  0  0  0
 29 49  1  0  0  0  0
M  END
$$$$
