44
 OpenBabel02232411163D
Structure written by MMmdl.
 44 47  0  0  0  0  0  0  0  0999 V2000
    3.3790  -48.1620    7.0950 O   0  0  0  0  0  0  0  0  0  0  0  0
    3.0200  -49.1880    6.5010 C   0  0  0  0  0  0  0  0  0  0  0  0
    3.7580  -50.0590    6.0010 O   0  5  0  0  0  0  0  0  0  0  0  0
    1.5090  -49.4680    6.3680 C   0  0  0  0  0  0  0  0  0  0  0  0
   -0.3710  -50.7680    6.5180 C   0  0  0  0  0  0  0  0  0  0  0  0
   -1.3140  -51.7840    6.7540 C   0  0  0  0  0  0  0  0  0  0  0  0
   -2.6340  -51.5200    6.4200 C   0  0  0  0  0  0  0  0  0  0  0  0
   -3.0180  -50.2770    5.8620 C   0  0  0  0  0  0  0  0  0  0  0  0
   -2.0910  -49.2700    5.6290 C   0  0  0  0  0  0  0  0  0  0  0  0
   -0.7440  -49.4940    5.9570 C   0  0  0  0  0  0  0  0  0  0  0  0
    0.4610  -48.6940    5.8840 C   0  0  0  0  0  0  0  0  0  0  0  0
    0.4800  -47.2920    5.3890 C   0  0  0  0  0  0  0  0  0  0  0  0
    0.4500  -46.2580    6.5290 C   0  0  0  0  0  0  0  0  0  0  0  0
   -0.6980  -46.4510    7.5090 C   0  0  0  0  0  0  0  0  0  0  0  0
   -1.9120  -45.9570    6.8160 O   0  0  0  0  0  0  0  0  0  0  0  0
   -3.0660  -45.9790    7.5350 C   0  0  0  0  0  0  0  0  0  0  0  0
   -5.4280  -45.6380    8.9690 C   0  0  0  0  0  0  0  0  0  0  0  0
   -4.4740  -46.5100    9.4310 C   0  0  0  0  0  0  0  0  0  0  0  0
   -3.2730  -46.6880    8.7070 C   0  0  0  0  0  0  0  0  0  0  0  0
   -1.0270  -52.7420    7.1860 H   0  0  0  0  0  0  0  0  0  0  0  0
   -3.4000  -52.2780    6.5900 H   0  0  0  0  0  0  0  0  0  0  0  0
   -4.0680  -50.1180    5.6140 H   0  0  0  0  0  0  0  0  0  0  0  0
   -2.4120  -48.3180    5.2040 H   0  0  0  0  0  0  0  0  0  0  0  0
   -0.4230  -47.1280    4.7470 H   0  0  0  0  0  0  0  0  0  0  0  0
    1.3930  -47.1020    4.7750 H   0  0  0  0  0  0  0  0  0  0  0  0
    0.3780  -45.2350    6.0940 H   0  0  0  0  0  0  0  0  0  0  0  0
    1.4000  -46.3460    7.1170 H   0  0  0  0  0  0  0  0  0  0  0  0
   -0.5860  -45.8060    8.4070 H   0  0  0  0  0  0  0  0  0  0  0  0
   -0.8770  -47.5220    7.7420 H   0  0  0  0  0  0  0  0  0  0  0  0
   -2.5530  -47.3990    9.0980 H   0  0  0  0  0  0  0  0  0  0  0  0
   -5.3200  -44.9850    7.7010 C   0  0  0  0  0  0  0  0  0  0  0  0
   -4.1170  -45.1620    6.9650 C   0  0  0  0  0  0  0  0  0  0  0  0
   -3.9850  -44.5580    5.6820 C   0  0  0  0  0  0  0  0  0  0  0  0
   -5.0060  -43.8000    5.1580 C   0  0  0  0  0  0  0  0  0  0  0  0
   -6.2080  -43.6250    5.8920 C   0  0  0  0  0  0  0  0  0  0  0  0
   -6.3650  -44.1990    7.1330 C   0  0  0  0  0  0  0  0  0  0  0  0
   -3.0730  -44.7330    5.1100 H   0  0  0  0  0  0  0  0  0  0  0  0
   -4.9080  -43.3350    4.1780 H   0  0  0  0  0  0  0  0  0  0  0  0
   -7.0080  -43.0290    5.4550 H   0  0  0  0  0  0  0  0  0  0  0  0
   -7.3010  -44.0630    7.6790 H   0  0  0  0  0  0  0  0  0  0  0  0
   -4.6190  -47.0650   10.3620 H   0  0  0  0  0  0  0  0  0  0  0  0
   -6.7960  -45.3030    9.9710 Cl  0  0  0  0  0  0  0  0  0  0  0  0
    1.0110  -50.7270    6.7620 N   0  0  0  0  0  0  0  0  0  0  0  0
    1.5370  -51.5080    7.1360 H   0  0  0  0  0  0  0  0  0  0  0  0
  1  2  2  0  0  0  0
  2  3  1  0  0  0  0
  2  4  1  0  0  0  0
  4 11  2  0  0  0  0
  4 43  1  0  0  0  0
  5  6  2  0  0  0  0
  5 10  1  0  0  0  0
  5 43  1  0  0  0  0
  6  7  1  0  0  0  0
  6 20  1  0  0  0  0
  7  8  2  0  0  0  0
  7 21  1  0  0  0  0
  8  9  1  0  0  0  0
  8 22  1  0  0  0  0
  9 10  2  0  0  0  0
  9 23  1  0  0  0  0
 10 11  1  0  0  0  0
 11 12  1  0  0  0  0
 12 24  1  0  0  0  0
 12 25  1  0  0  0  0
 12 13  1  0  0  0  0
 13 14  1  0  0  0  0
 13 26  1  0  0  0  0
 13 27  1  0  0  0  0
 14 15  1  0  0  0  0
 14 28  1  0  0  0  0
 14 29  1  0  0  0  0
 15 16  1  0  0  0  0
 16 19  2  0  0  0  0
 16 32  1  0  0  0  0
 17 18  2  0  0  0  0
 17 31  1  0  0  0  0
 17 42  1  0  0  0  0
 18 19  1  0  0  0  0
 18 41  1  0  0  0  0
 19 30  1  0  0  0  0
 31 32  2  0  0  0  0
 31 36  1  0  0  0  0
 32 33  1  0  0  0  0
 33 34  2  0  0  0  0
 33 37  1  0  0  0  0
 34 35  1  0  0  0  0
 34 38  1  0  0  0  0
 35 36  2  0  0  0  0
 35 39  1  0  0  0  0
 36 40  1  0  0  0  0
 43 44  1  0  0  0  0
M  CHG  1   3  -1
M  END
$$$$
