53
                    3D
 Schrodinger Suite 2022-3.
 44 46  0  0  1  0  0  0  0  0999 V2000
    3.6640  -48.4270    7.3280 O   0  0  0  0  0  0  0  0  0  0  0  0
    3.2900  -49.2300    6.4630 C   0  0  0  0  0  0  0  0  0  0  0  0
    4.0010  -49.9220    5.7140 O   0  5  0  0  0  0  0  0  0  0  0  0
    1.7720  -49.4460    6.3160 C   0  0  0  0  0  0  0  0  0  0  0  0
   -0.1360  -50.6970    6.3930 C   0  0  0  0  0  0  0  0  0  0  0  0
   -1.1000  -51.7050    6.5580 C   0  0  0  0  0  0  0  0  0  0  0  0
   -2.3920  -51.3440    6.2260 C   0  0  0  0  0  0  0  0  0  0  0  0
   -2.7740  -50.0760    5.7520 C   0  0  0  0  0  0  0  0  0  0  0  0
   -1.8130  -49.0850    5.5950 C   0  0  0  0  0  0  0  0  0  0  0  0
   -0.4790  -49.3750    5.9200 C   0  0  0  0  0  0  0  0  0  0  0  0
    0.7460  -48.6070    5.8990 C   0  0  0  0  0  0  0  0  0  0  0  0
    0.7890  -47.1710    5.5220 C   0  0  0  0  0  0  0  0  0  0  0  0
    0.6480  -46.2490    6.7470 C   0  0  0  0  0  0  0  0  0  0  0  0
   -0.7110  -46.3300    7.4380 C   0  0  0  0  0  0  0  0  0  0  0  0
   -1.6390  -45.7130    6.4700 O   0  0  0  0  0  0  0  0  0  0  0  0
   -2.9180  -45.4690    6.8610 C   0  0  0  0  0  0  0  0  0  0  0  0
   -3.4810  -45.8560    8.0880 C   0  0  0  0  0  0  0  0  0  0  0  0
   -4.8140  -45.5230    8.3620 C   0  0  0  0  0  0  0  0  0  0  0  0
   -5.4440  -45.8960    9.6620 C   0  0  0  0  0  0  0  0  0  0  0  0
   -5.5540  -44.8340    7.3890 C   0  0  0  0  0  0  0  0  0  0  0  0
   -7.2160  -44.4900    7.7010 Cl  0  0  0  0  0  0  0  0  0  0  0  0
   -5.0030  -44.4490    6.1510 C   0  0  0  0  0  0  0  0  0  0  0  0
   -5.8420  -43.7780    5.1140 C   0  0  0  0  0  0  0  0  0  0  0  0
   -3.6700  -44.7650    5.8950 C   0  0  0  0  0  0  0  0  0  0  0  0
   -0.8460  -52.7010    6.9230 H   0  0  0  0  0  0  0  0  0  0  0  0
   -3.6380  -52.5490    6.3650 Cl  0  0  0  0  0  0  0  0  0  0  0  0
   -3.8190  -49.8820    5.5090 H   0  0  0  0  0  0  0  0  0  0  0  0
   -2.1030  -48.0990    5.2250 H   0  0  0  0  0  0  0  0  0  0  0  0
   -0.0640  -46.9560    4.8280 H   0  0  0  0  0  0  0  0  0  0  0  0
    1.7420  -46.9200    4.9970 H   0  0  0  0  0  0  0  0  0  0  0  0
    0.7980  -45.1930    6.4220 H   0  0  0  0  0  0  0  0  0  0  0  0
    1.4230  -46.5370    7.4970 H   0  0  0  0  0  0  0  0  0  0  0  0
   -0.7400  -45.7110    8.3600 H   0  0  0  0  0  0  0  0  0  0  0  0
   -1.0640  -47.3720    7.5950 H   0  0  0  0  0  0  0  0  0  0  0  0
   -2.9200  -46.4270    8.8210 H   0  0  0  0  0  0  0  0  0  0  0  0
   -5.8750  -44.9950   10.1610 H   0  0  0  0  0  0  0  0  0  0  0  0
   -6.2800  -46.6170    9.4870 H   0  0  0  0  0  0  0  0  0  0  0  0
   -4.7120  -46.3770   10.3490 H   0  0  0  0  0  0  0  0  0  0  0  0
   -5.2130  -43.4060    4.2720 H   0  0  0  0  0  0  0  0  0  0  0  0
   -6.5820  -44.5160    4.7140 H   0  0  0  0  0  0  0  0  0  0  0  0
   -6.4080  -42.9190    5.5410 H   0  0  0  0  0  0  0  0  0  0  0  0
   -3.2100  -44.4870    4.9530 H   0  0  0  0  0  0  0  0  0  0  0  0
    1.2430  -50.7150    6.6250 N   0  0  0  0  0  0  0  0  0  0  0  0
    1.7450  -51.5320    6.9540 H   0  0  0  0  0  0  0  0  0  0  0  0
  1  2  2  0  0  0  0
  2  3  1  0  0  0  0
  2  4  1  0  0  0  0
  4 11  2  0  0  0  0
  4 43  1  0  0  0  0
  5  6  1  0  0  0  0
  5 10  2  0  0  0  0
  5 43  1  0  0  0  0
  6  7  2  0  0  0  0
  6 25  1  0  0  0  0
  7  8  1  0  0  0  0
  7 26  1  0  0  0  0
  8  9  2  0  0  0  0
  8 27  1  0  0  0  0
  9 10  1  0  0  0  0
  9 28  1  0  0  0  0
 10 11  1  0  0  0  0
 11 12  1  0  0  0  0
 12 29  1  0  0  0  0
 12 30  1  0  0  0  0
 12 13  1  0  0  0  0
 13 14  1  0  0  0  0
 13 31  1  0  0  0  0
 13 32  1  0  0  0  0
 14 15  1  0  0  0  0
 14 33  1  0  0  0  0
 14 34  1  0  0  0  0
 15 16  1  0  0  0  0
 16 17  1  0  0  0  0
 16 24  2  0  0  0  0
 17 18  2  0  0  0  0
 17 35  1  0  0  0  0
 18 19  1  0  0  0  0
 18 20  1  0  0  0  0
 19 36  1  0  0  0  0
 19 37  1  0  0  0  0
 19 38  1  0  0  0  0
 20 21  1  0  0  0  0
 20 22  2  0  0  0  0
 22 23  1  0  0  0  0
 22 24  1  0  0  0  0
 23 39  1  0  0  0  0
 23 40  1  0  0  0  0
 23 41  1  0  0  0  0
 24 42  1  0  0  0  0
 43 44  1  0  0  0  0
M  CHG  1   3  -1
M  END
$$$$
