CAT-17g
 OpenBabel02232411143D
Structure written by MMmdl.
 42 45  0  0  1  0  0  0  0  0999 V2000
   11.6270   -2.3430    1.2490 C   0  0  0  0  0  0  0  0  0  0  0  0
   12.9780   -2.3240    0.6510 N   0  0  0  0  0  0  0  0  0  0  0  0
   14.1620   -2.3330    1.3810 C   0  0  0  0  0  0  0  0  0  0  0  0
   14.3010   -2.4410    2.7330 N   0  0  0  0  0  0  0  0  0  0  0  0
   15.2600   -2.2700    0.5110 N   0  3  0  0  0  0  0  0  0  0  0  0
   14.8180   -2.5980   -0.8960 C   0  0  1  0  0  0  0  0  0  0  0  0
   15.4320   -1.5960   -1.8480 C   0  0  0  0  0  0  0  0  0  0  0  0
   16.3410   -2.0000   -2.8330 C   0  0  0  0  0  0  0  0  0  0  0  0
   16.8330   -1.0590   -3.7430 C   0  0  0  0  0  0  0  0  0  0  0  0
   16.4410    0.2790   -3.6640 C   0  0  0  0  0  0  0  0  0  0  0  0
   15.5760    0.7020   -2.6400 C   0  0  0  0  0  0  0  0  0  0  0  0
   15.2000    2.1230   -2.5040 C   0  0  0  0  0  0  0  0  0  0  0  0
   15.2440    2.7520   -1.2390 C   0  0  0  0  0  0  0  0  0  0  0  0
   14.8490    4.0350   -1.0350 N   0  0  0  0  0  0  0  0  0  0  0  0
   14.4040    4.7520   -2.0940 C   0  0  0  0  0  0  0  0  0  0  0  0
   14.3950    4.1950   -3.3900 C   0  0  0  0  0  0  0  0  0  0  0  0
   14.0030    4.9460   -4.4140 F   0  0  0  0  0  0  0  0  0  0  0  0
   14.7820    2.8740   -3.6140 C   0  0  0  0  0  0  0  0  0  0  0  0
   15.0670   -0.2450   -1.7380 C   0  0  0  0  0  0  0  0  0  0  0  0
   15.0220   -4.0620   -1.2590 C   0  0  0  0  0  0  0  0  0  0  0  0
   16.2250   -4.8350   -0.7460 C   0  0  0  0  0  0  0  0  0  0  0  0
   14.8470   -5.1610   -0.2160 C   0  0  0  0  0  0  0  0  0  0  0  0
   13.2660   -2.4100   -0.7990 C   0  0  0  0  0  0  0  0  0  0  0  0
   12.4080   -2.3480   -1.6170 O   0  0  0  0  0  0  0  0  0  0  0  0
   11.6740   -2.6090    2.3380 H   0  0  0  0  0  0  0  0  0  0  0  0
   11.1560   -1.3310    1.1320 H   0  0  0  0  0  0  0  0  0  0  0  0
   11.0030   -3.1180    0.7250 H   0  0  0  0  0  0  0  0  0  0  0  0
   13.5790   -2.0590    3.3940 H   0  0  0  0  0  0  0  0  0  0  0  0
   16.1870   -2.6240    0.8750 H   0  0  0  0  0  0  0  0  0  0  0  0
   16.6680   -3.0390   -2.8910 H   0  0  0  0  0  0  0  0  0  0  0  0
   17.5340   -1.3740   -4.5220 H   0  0  0  0  0  0  0  0  0  0  0  0
   16.8130    0.9940   -4.4030 H   0  0  0  0  0  0  0  0  0  0  0  0
   15.6060    2.2020   -0.3580 H   0  0  0  0  0  0  0  0  0  0  0  0
   14.0350    5.7710   -1.8920 H   0  0  0  0  0  0  0  0  0  0  0  0
   14.7530    2.4250   -4.6140 H   0  0  0  0  0  0  0  0  0  0  0  0
   14.3880    0.0650   -0.9440 H   0  0  0  0  0  0  0  0  0  0  0  0
   14.6770   -4.2800   -2.2860 H   0  0  0  0  0  0  0  0  0  0  0  0
   16.7370   -5.5170   -1.4230 H   0  0  0  0  0  0  0  0  0  0  0  0
   16.9440   -4.3350   -0.0950 H   0  0  0  0  0  0  0  0  0  0  0  0
   14.6050   -4.8950    0.8200 H   0  0  0  0  0  0  0  0  0  0  0  0
   14.3500   -6.0910   -0.5250 H   0  0  0  0  0  0  0  0  0  0  0  0
   15.2780   -2.3820    3.1400 H   0  0  0  0  0  0  0  0  0  0  0  0
  1  2  1  0  0  0  0
  1 25  1  0  0  0  0
  1 26  1  0  0  0  0
  1 27  1  0  0  0  0
  2  3  1  0  0  0  0
  2 23  1  0  0  0  0
  3  4  1  0  0  0  0
  3  5  2  0  0  0  0
  4 28  1  0  0  0  0
  4 42  1  0  0  0  0
  5  6  1  0  0  0  0
  5 29  1  0  0  0  0
  6  7  1  6  0  0  0
  6 20  1  0  0  0  0
  6 23  1  0  0  0  0
  7  8  2  0  0  0  0
  7 19  1  0  0  0  0
  8  9  1  0  0  0  0
  8 30  1  0  0  0  0
  9 10  2  0  0  0  0
  9 31  1  0  0  0  0
 10 11  1  0  0  0  0
 10 32  1  0  0  0  0
 11 12  1  0  0  0  0
 11 19  2  0  0  0  0
 12 13  2  0  0  0  0
 12 18  1  0  0  0  0
 13 14  1  0  0  0  0
 13 33  1  0  0  0  0
 14 15  2  0  0  0  0
 15 16  1  0  0  0  0
 15 34  1  0  0  0  0
 16 18  2  0  0  0  0
 16 17  1  0  0  0  0
 18 35  1  0  0  0  0
 19 36  1  0  0  0  0
 20 21  1  0  0  0  0
 20 22  1  0  0  0  0
 20 37  1  0  0  0  0
 21 22  1  0  0  0  0
 21 38  1  0  0  0  0
 21 39  1  0  0  0  0
 22 40  1  0  0  0  0
 22 41  1  0  0  0  0
 23 24  2  0  0  0  0
M  CHG  1   5   1
M  END
$$$$
