66 flip
                    3D
 Schrodinger Suite 2022-3.
 43 46  0  0  1  0  0  0  0  0999 V2000
    3.3140  -48.0170    7.2180 O   0  0  0  0  0  0  0  0  0  0  0  0
    2.9720  -48.9810    6.5230 C   0  0  0  0  0  0  0  0  0  0  0  0
    3.7060  -49.7740    5.9050 O   0  5  0  0  0  0  0  0  0  0  0  0
    1.4790  -49.3320    6.4620 C   0  0  0  0  0  0  0  0  0  0  0  0
    1.1110  -50.9540    7.0040 S   0  0  0  0  0  0  0  0  0  0  0  0
   -0.5930  -50.7660    6.7110 C   0  0  0  0  0  0  0  0  0  0  0  0
   -1.6370  -51.6640    6.9090 C   0  0  0  0  0  0  0  0  0  0  0  0
   -2.9380  -51.3350    6.5440 C   0  0  0  0  0  0  0  0  0  0  0  0
   -3.1930  -50.0600    6.0070 C   0  0  0  0  0  0  0  0  0  0  0  0
   -2.1710  -49.1320    5.8300 C   0  0  0  0  0  0  0  0  0  0  0  0
   -0.8510  -49.4720    6.1750 C   0  0  0  0  0  0  0  0  0  0  0  0
    0.3670  -48.6590    6.0710 C   0  0  0  0  0  0  0  0  0  0  0  0
    0.3230  -47.2450    5.5820 C   0  0  0  0  0  0  0  0  0  0  0  0
    0.1980  -46.2230    6.7280 C   0  0  0  0  0  0  0  0  0  0  0  0
   -1.1430  -46.3030    7.4590 C   0  0  0  0  0  0  0  0  0  0  0  0
   -2.1310  -45.9880    6.4170 O   0  0  0  0  0  0  0  0  0  0  0  0
   -3.3380  -45.4250    6.7350 C   0  0  0  0  0  0  0  0  0  0  0  0
   -5.8190  -44.1300    6.9960 C   0  0  0  0  0  0  0  0  0  0  0  0
   -5.0300  -43.8940    5.8960 C   0  0  0  0  0  0  0  0  0  0  0  0
   -3.7740  -44.5270    5.7700 C   0  0  0  0  0  0  0  0  0  0  0  0
   -1.3670  -53.2150    7.6380 Cl  0  0  0  0  0  0  0  0  0  0  0  0
   -3.7530  -52.0450    6.6700 H   0  0  0  0  0  0  0  0  0  0  0  0
   -4.2190  -49.8060    5.7340 H   0  0  0  0  0  0  0  0  0  0  0  0
   -2.4160  -48.1430    5.4320 H   0  0  0  0  0  0  0  0  0  0  0  0
   -0.5580  -47.1140    4.9010 H   0  0  0  0  0  0  0  0  0  0  0  0
    1.2490  -47.0060    5.0030 H   0  0  0  0  0  0  0  0  0  0  0  0
    0.3060  -45.1960    6.3080 H   0  0  0  0  0  0  0  0  0  0  0  0
    1.0070  -46.4030    7.4780 H   0  0  0  0  0  0  0  0  0  0  0  0
   -1.2320  -45.5540    8.2710 H   0  0  0  0  0  0  0  0  0  0  0  0
   -1.3610  -47.3430    7.7810 H   0  0  0  0  0  0  0  0  0  0  0  0
   -3.1560  -44.3090    4.9070 H   0  0  0  0  0  0  0  0  0  0  0  0
   -5.3930  -45.0470    8.0030 C   0  0  0  0  0  0  0  0  0  0  0  0
   -4.1650  -45.7580    7.8670 C   0  0  0  0  0  0  0  0  0  0  0  0
   -3.8870  -46.8000    8.8030 C   0  0  0  0  0  0  0  0  0  0  0  0
   -4.7170  -47.0400    9.8700 C   0  0  0  0  0  0  0  0  0  0  0  0
   -5.8890  -46.2550   10.0570 C   0  0  0  0  0  0  0  0  0  0  0  0
   -6.2270  -45.2940    9.1410 C   0  0  0  0  0  0  0  0  0  0  0  0
   -3.0350  -47.4590    8.6460 H   0  0  0  0  0  0  0  0  0  0  0  0
   -4.5150  -47.8520   10.5680 H   0  0  0  0  0  0  0  0  0  0  0  0
   -6.5290  -46.4500   10.9140 H   0  0  0  0  0  0  0  0  0  0  0  0
   -7.1440  -44.7190    9.2510 H   0  0  0  0  0  0  0  0  0  0  0  0
   -5.3580  -43.2130    5.1090 H   0  0  0  0  0  0  0  0  0  0  0  0
   -6.7860  -43.6400    7.1030 H   0  0  0  0  0  0  0  0  0  0  0  0
  1  2  2  0  0  0  0
  2  3  1  0  0  0  0
  2  4  1  0  0  0  0
  4  5  1  0  0  0  0
  4 12  2  0  0  0  0
  5  6  1  0  0  0  0
  6  7  1  0  0  0  0
  6 11  2  0  0  0  0
  7  8  2  0  0  0  0
  7 21  1  0  0  0  0
  8  9  1  0  0  0  0
  8 22  1  0  0  0  0
  9 10  2  0  0  0  0
  9 23  1  0  0  0  0
 10 11  1  0  0  0  0
 10 24  1  0  0  0  0
 11 12  1  0  0  0  0
 12 13  1  0  0  0  0
 13 25  1  0  0  0  0
 13 26  1  0  0  0  0
 13 14  1  0  0  0  0
 14 15  1  0  0  0  0
 14 27  1  0  0  0  0
 14 28  1  0  0  0  0
 15 16  1  0  0  0  0
 15 29  1  0  0  0  0
 15 30  1  0  0  0  0
 16 17  1  0  0  0  0
 17 20  2  0  0  0  0
 17 33  1  0  0  0  0
 18 19  2  0  0  0  0
 18 32  1  0  0  0  0
 18 43  1  0  0  0  0
 19 20  1  0  0  0  0
 19 42  1  0  0  0  0
 20 31  1  0  0  0  0
 32 33  2  0  0  0  0
 32 37  1  0  0  0  0
 33 34  1  0  0  0  0
 34 35  2  0  0  0  0
 34 38  1  0  0  0  0
 35 36  1  0  0  0  0
 35 39  1  0  0  0  0
 36 37  2  0  0  0  0
 36 40  1  0  0  0  0
 37 41  1  0  0  0  0
M  CHG  1   3  -1
M  END
$$$$
