18637-1
 OpenBabel02232411163D
Structure written by MMmdl.
 53 54  0  0  0  0  0  0  0  0999 V2000
   23.8320   12.6610   30.3510 C   0  0  0  0  0  0  0  0  0  0  0  0
   23.3910   11.2140   30.4600 C   0  0  0  0  0  0  0  0  0  0  0  0
   22.1400   11.3040   31.2560 O   0  0  0  0  0  0  0  0  0  0  0  0
   21.5060   10.1600   31.5920 C   0  0  0  0  0  0  0  0  0  0  0  0
   21.9840    8.9750   31.1450 N   0  0  0  0  0  0  0  0  0  0  0  0
   21.2500    7.8360   31.4480 C   0  0  0  0  0  0  0  0  0  0  0  0
   20.0960    7.8710   32.2260 C   0  0  0  0  0  0  0  0  0  0  0  0
   19.6150    9.1170   32.7070 C   0  0  0  0  0  0  0  0  0  0  0  0
   18.4760    9.1550   33.4720 N   0  0  0  0  0  0  0  0  0  0  0  0
   20.3210   10.3160   32.3720 C   0  0  0  0  0  0  0  0  0  0  0  0
   19.8970   11.6150   32.7230 C   0  0  0  0  0  0  0  0  0  0  0  0
   19.5950   12.7080   32.9660 N   0  0  0  0  0  0  0  0  0  0  0  0
   21.8060    6.6800   30.8610 N   0  0  0  0  0  0  0  0  0  0  0  0
   21.2040    5.4010   30.7740 C   0  0  0  0  0  0  0  0  0  0  0  0
   20.1300    5.1490   31.2770 O   0  0  0  0  0  0  0  0  0  0  0  0
   22.0040    4.4150   29.9320 C   0  0  0  0  0  0  0  0  0  0  0  0
   23.3180    4.0540   30.5560 C   0  0  0  0  0  0  0  0  0  0  0  0
   24.4620    4.8590   30.3640 C   0  0  0  0  0  0  0  0  0  0  0  0
   24.2320    5.9410   29.5310 O   0  0  0  0  0  0  0  0  0  0  0  0
   25.2560    6.9650   29.4200 C   0  0  0  0  0  0  0  0  0  0  0  0
   25.6960    4.5610   30.9560 C   0  0  0  0  0  0  0  0  0  0  0  0
   25.8170    3.4160   31.7500 C   0  0  0  0  0  0  0  0  0  0  0  0
   24.6670    2.5890   31.9360 C   0  0  0  0  0  0  0  0  0  0  0  0
   23.4460    2.9010   31.3440 C   0  0  0  0  0  0  0  0  0  0  0  0
   24.8990    1.5140   32.7790 O   0  0  0  0  0  0  0  0  0  0  0  0
   23.9680    0.4040   32.7200 C   0  0  0  0  0  0  0  0  0  0  0  0
   27.0320    3.0680   32.4070 N   0  0  0  0  0  0  0  0  0  0  0  0
   28.3330    3.2860   31.8850 C   0  0  0  0  0  0  0  0  0  0  0  0
   28.4900    3.8080   30.7950 O   0  0  0  0  0  0  0  0  0  0  0  0
   29.4360    2.8350   32.7910 C   0  0  0  0  0  0  0  0  0  0  0  0
   24.7600   12.7060   29.7260 H   0  0  0  0  0  0  0  0  0  0  0  0
   23.0500   13.2820   29.8540 H   0  0  0  0  0  0  0  0  0  0  0  0
   24.0540   13.0960   31.3510 H   0  0  0  0  0  0  0  0  0  0  0  0
   23.1310   10.7730   29.4720 H   0  0  0  0  0  0  0  0  0  0  0  0
   24.1170   10.5860   31.0230 H   0  0  0  0  0  0  0  0  0  0  0  0
   19.5430    6.9580   32.4570 H   0  0  0  0  0  0  0  0  0  0  0  0
   18.0750   10.0400   33.7840 H   0  0  0  0  0  0  0  0  0  0  0  0
   17.9680    8.2850   33.7200 H   0  0  0  0  0  0  0  0  0  0  0  0
   22.7300    6.8210   30.3820 H   0  0  0  0  0  0  0  0  0  0  0  0
   21.3870    3.4910   29.7850 H   0  0  0  0  0  0  0  0  0  0  0  0
   22.1880    4.8830   28.9260 H   0  0  0  0  0  0  0  0  0  0  0  0
   25.5100    7.3700   30.4230 H   0  0  0  0  0  0  0  0  0  0  0  0
   26.1400    6.5530   28.8910 H   0  0  0  0  0  0  0  0  0  0  0  0
   24.7320    7.7300   28.8000 H   0  0  0  0  0  0  0  0  0  0  0  0
   26.5600    5.2140   30.8030 H   0  0  0  0  0  0  0  0  0  0  0  0
   22.5820    2.2490   31.4930 H   0  0  0  0  0  0  0  0  0  0  0  0
   24.4790   -0.3460   33.3690 H   0  0  0  0  0  0  0  0  0  0  0  0
   22.9900    0.7060   33.1510 H   0  0  0  0  0  0  0  0  0  0  0  0
   23.8760    0.0350   31.6760 H   0  0  0  0  0  0  0  0  0  0  0  0
   26.9410    2.4660   33.2430 H   0  0  0  0  0  0  0  0  0  0  0  0
   29.3320    1.7570   33.0790 H   0  0  0  0  0  0  0  0  0  0  0  0
   30.4340    2.9540   32.2960 H   0  0  0  0  0  0  0  0  0  0  0  0
   29.4530    3.4380   33.7360 H   0  0  0  0  0  0  0  0  0  0  0  0
  1  2  1  0  0  0  0
  1 31  1  0  0  0  0
  1 32  1  0  0  0  0
  1 33  1  0  0  0  0
  2  3  1  0  0  0  0
  2 34  1  0  0  0  0
  2 35  1  0  0  0  0
  3  4  1  0  0  0  0
  4 10  2  0  0  0  0
  4  5  1  0  0  0  0
  5  6  2  0  0  0  0
  6  7  1  0  0  0  0
  6 13  1  0  0  0  0
  7  8  2  0  0  0  0
  7 36  1  0  0  0  0
  8  9  1  0  0  0  0
  8 10  1  0  0  0  0
  9 37  1  0  0  0  0
  9 38  1  0  0  0  0
 10 11  1  0  0  0  0
 11 12  3  0  0  0  0
 13 14  1  0  0  0  0
 13 39  1  0  0  0  0
 14 15  2  0  0  0  0
 14 16  1  0  0  0  0
 16 17  1  0  0  0  0
 16 40  1  0  0  0  0
 16 41  1  0  0  0  0
 17 24  2  0  0  0  0
 17 18  1  0  0  0  0
 18 19  1  0  0  0  0
 18 21  2  0  0  0  0
 19 20  1  0  0  0  0
 20 42  1  0  0  0  0
 20 43  1  0  0  0  0
 20 44  1  0  0  0  0
 21 22  1  0  0  0  0
 21 45  1  0  0  0  0
 22 23  2  0  0  0  0
 22 27  1  0  0  0  0
 23 24  1  0  0  0  0
 23 25  1  0  0  0  0
 24 46  1  0  0  0  0
 25 26  1  0  0  0  0
 26 47  1  0  0  0  0
 26 48  1  0  0  0  0
 26 49  1  0  0  0  0
 27 28  1  0  0  0  0
 27 50  1  0  0  0  0
 28 29  2  0  0  0  0
 28 30  1  0  0  0  0
 30 51  1  0  0  0  0
 30 52  1  0  0  0  0
 30 53  1  0  0  0  0
M  END
$$$$
