p38a_2p
 OpenBabel02232411163D
Structure written by MMmdl.
 58 61  0  0  0  0  0  0  0  0999 V2000
   38.2270   36.5310   17.1420 C   0  0  0  0  0  0  0  0  0  0  0  0
   34.5970   35.0940   21.1580 C   0  0  0  0  0  0  0  0  0  0  0  0
   37.3920   36.0760   18.1580 C   0  0  0  0  0  0  0  0  0  0  0  0
   34.0240   39.1330   23.7610 C   0  0  0  0  0  0  0  0  0  0  0  0
   34.5990   37.9680   21.3310 C   0  0  0  0  0  0  0  0  0  0  0  0
   34.9140   37.3370   20.0790 C   0  0  0  0  0  0  0  0  0  0  0  0
   37.6280   36.7420   15.8920 C   0  0  0  0  0  0  0  0  0  0  0  0
   36.2770   36.4980   15.6330 C   0  0  0  0  0  0  0  0  0  0  0  0
   35.4620   36.0290   16.6680 C   0  0  0  0  0  0  0  0  0  0  0  0
   34.3670   37.1760   22.4960 C   0  0  0  0  0  0  0  0  0  0  0  0
   34.5310   39.3800   21.4850 C   0  0  0  0  0  0  0  0  0  0  0  0
   34.9350   35.9860   20.0190 C   0  0  0  0  0  0  0  0  0  0  0  0
   36.0250   35.8120   17.9290 C   0  0  0  0  0  0  0  0  0  0  0  0
   37.8780   35.8880   19.3790 F   0  0  0  0  0  0  0  0  0  0  0  0
   35.2380   35.1960   18.9100 O   0  0  0  0  0  0  0  0  0  0  0  0
   34.2620   39.9760   22.6540 N   0  0  0  0  0  0  0  0  0  0  0  0
   34.4940   33.8890   21.0950 O   0  0  0  0  0  0  0  0  0  0  0  0
   34.4140   35.7710   22.4180 N   0  0  0  0  0  0  0  0  0  0  0  0
   34.0990   37.7530   23.7100 N   0  0  0  0  0  0  0  0  0  0  0  0
   33.6410   39.7350   24.9340 N   0  0  0  0  0  0  0  0  0  0  0  0
   39.2850   36.7500   17.3170 H   0  0  0  0  0  0  0  0  0  0  0  0
   35.1380   37.9720   19.2200 H   0  0  0  0  0  0  0  0  0  0  0  0
   35.8450   36.6840   14.6480 H   0  0  0  0  0  0  0  0  0  0  0  0
   34.3970   35.8480   16.4880 H   0  0  0  0  0  0  0  0  0  0  0  0
   34.7030   40.0360   20.6140 H   0  0  0  0  0  0  0  0  0  0  0  0
   33.7020   40.7670   25.0270 H   0  0  0  0  0  0  0  0  0  0  0  0
   38.3760   37.2400   14.9110 F   0  0  0  0  0  0  0  0  0  0  0  0
   32.2110   38.9510   28.3870 C   0  0  0  0  0  0  0  0  0  0  0  0
   32.3210   39.6230   27.0110 C   0  0  0  0  0  0  0  0  0  0  0  0
   33.4760   38.9790   26.2140 C   0  0  0  0  0  0  0  0  0  0  0  0
   34.7860   39.0230   27.0300 C   0  0  0  0  0  0  0  0  0  0  0  0
   34.5600   38.3890   28.4080 C   0  0  0  0  0  0  0  0  0  0  0  0
   33.4600   39.0140   29.1110 O   0  0  0  0  0  0  0  0  0  0  0  0
   31.9000   37.8850   28.2780 H   0  0  0  0  0  0  0  0  0  0  0  0
   31.5190   39.5120   29.0550 H   0  0  0  0  0  0  0  0  0  0  0  0
   32.5080   40.7150   27.1380 H   0  0  0  0  0  0  0  0  0  0  0  0
   31.3630   39.4910   26.4530 H   0  0  0  0  0  0  0  0  0  0  0  0
   33.2090   37.9110   25.9760 H   0  0  0  0  0  0  0  0  0  0  0  0
   35.5810   38.4540   26.4900 H   0  0  0  0  0  0  0  0  0  0  0  0
   35.1240   40.0810   27.1430 H   0  0  0  0  0  0  0  0  0  0  0  0
   34.3550   37.2980   28.3080 H   0  0  0  0  0  0  0  0  0  0  0  0
   35.4190   38.5880   29.0890 H   0  0  0  0  0  0  0  0  0  0  0  0
   34.3270   34.9390   23.6640 C   0  0  0  0  0  0  0  0  0  0  0  0
   34.7150   33.9150   23.4080 H   0  0  0  0  0  0  0  0  0  0  0  0
   34.9900   35.4010   24.4470 H   0  0  0  0  0  0  0  0  0  0  0  0
   32.8890   34.8300   24.2250 C   0  0  0  0  0  0  0  0  0  0  0  0
   32.7530   35.6310   24.9960 H   0  0  0  0  0  0  0  0  0  0  0  0
   32.1510   35.0190   23.4050 H   0  0  0  0  0  0  0  0  0  0  0  0
   32.6420   33.4410   24.8270 C   0  0  0  0  0  0  0  0  0  0  0  0
   33.6210   33.0030   25.1680 H   0  0  0  0  0  0  0  0  0  0  0  0
   32.2670   32.7660   24.0100 H   0  0  0  0  0  0  0  0  0  0  0  0
   31.5230   33.3800   26.1870 S   0  0  0  0  0  0  0  0  0  0  0  0
   32.1270   33.9550   27.4090 O   0  0  0  0  0  0  0  0  0  0  0  0
   31.1520   31.9570   26.4230 O   0  0  0  0  0  0  0  0  0  0  0  0
   30.0980   34.2630   25.7210 C   0  0  0  0  0  0  0  0  0  0  0  0
   29.2350   33.5880   25.5070 H   0  0  0  0  0  0  0  0  0  0  0  0
   29.7620   34.9810   26.5170 H   0  0  0  0  0  0  0  0  0  0  0  0
   30.2390   34.8800   24.7950 H   0  0  0  0  0  0  0  0  0  0  0  0
  1  3  2  0  0  0  0
  1  7  1  0  0  0  0
  1 21  1  0  0  0  0
  2 12  1  0  0  0  0
  2 17  2  0  0  0  0
  2 18  1  0  0  0  0
  3 13  1  0  0  0  0
  3 14  1  0  0  0  0
  4 16  2  0  0  0  0
  4 19  1  0  0  0  0
  4 20  1  0  0  0  0
  5  6  1  0  0  0  0
  5 10  1  0  0  0  0
  5 11  2  0  0  0  0
  6 12  2  0  0  0  0
  6 22  1  0  0  0  0
  7  8  2  0  0  0  0
  7 27  1  0  0  0  0
  8  9  1  0  0  0  0
  8 23  1  0  0  0  0
  9 13  2  0  0  0  0
  9 24  1  0  0  0  0
 10 18  1  0  0  0  0
 10 19  2  0  0  0  0
 11 16  1  0  0  0  0
 11 25  1  0  0  0  0
 12 15  1  0  0  0  0
 13 15  1  0  0  0  0
 18 43  1  0  0  0  0
 20 26  1  0  0  0  0
 20 30  1  0  0  0  0
 28 29  1  0  0  0  0
 28 33  1  0  0  0  0
 28 34  1  0  0  0  0
 28 35  1  0  0  0  0
 29 30  1  0  0  0  0
 29 36  1  0  0  0  0
 29 37  1  0  0  0  0
 30 31  1  0  0  0  0
 30 38  1  0  0  0  0
 31 32  1  0  0  0  0
 31 39  1  0  0  0  0
 31 40  1  0  0  0  0
 32 33  1  0  0  0  0
 32 41  1  0  0  0  0
 32 42  1  0  0  0  0
 43 44  1  0  0  0  0
 43 45  1  0  0  0  0
 43 46  1  0  0  0  0
 46 47  1  0  0  0  0
 46 48  1  0  0  0  0
 46 49  1  0  0  0  0
 49 50  1  0  0  0  0
 49 51  1  0  0  0  0
 49 52  1  0  0  0  0
 52 53  2  0  0  0  0
 52 54  2  0  0  0  0
 52 55  1  0  0  0  0
 55 56  1  0  0  0  0
 55 57  1  0  0  0  0
 55 58  1  0  0  0  0
M  END
$$$$
