CAT-4n
                    3D
 Schrodinger Suite 2022-3.
 46 49  0  0  1  0  0  0  0  0999 V2000
   11.7230   -2.5580    1.3470 C   0  0  0  0  0  0  0  0  0  0  0  0
   13.0140   -2.9090    0.7200 N   0  0  0  0  0  0  0  0  0  0  0  0
   14.2280   -2.7670    1.4020 C   0  0  0  0  0  0  0  0  0  0  0  0
   14.3820   -2.6140    2.7440 N   0  0  0  0  0  0  0  0  0  0  0  0
   15.2830   -2.8800    0.5090 N   0  3  0  0  0  0  0  0  0  0  0  0
   14.8050   -3.2670   -0.8760 C   0  0  2  0  0  0  0  0  0  0  0  0
   15.2350   -4.6900   -1.1820 C   0  0  0  0  0  0  0  0  0  0  0  0
   16.5580   -5.0720   -0.9040 C   0  0  0  0  0  0  0  0  0  0  0  0
   16.9500   -6.4040   -1.0520 C   0  0  0  0  0  0  0  0  0  0  0  0
   16.0290   -7.3620   -1.4860 C   0  0  0  0  0  0  0  0  0  0  0  0
   14.7340   -6.9710   -1.8350 C   0  0  0  0  0  0  0  0  0  0  0  0
   14.3360   -5.6380   -1.6910 C   0  0  0  0  0  0  0  0  0  0  0  0
   15.2360   -2.1880   -1.8520 C   0  0  0  0  0  0  0  0  0  0  0  0
   15.9950   -2.4840   -2.9880 C   0  0  0  0  0  0  0  0  0  0  0  0
   16.3270   -1.4590   -3.8830 C   0  0  0  0  0  0  0  0  0  0  0  0
   15.8990   -0.1500   -3.6610 C   0  0  0  0  0  0  0  0  0  0  0  0
   15.1440    0.1550   -2.5140 C   0  0  0  0  0  0  0  0  0  0  0  0
   14.6790    1.5320   -2.2560 C   0  0  0  0  0  0  0  0  0  0  0  0
   13.9140    2.2300   -3.2170 C   0  0  0  0  0  0  0  0  0  0  0  0
   13.4390    3.4830   -3.0010 N   0  0  0  0  0  0  0  0  0  0  0  0
   13.7110    4.0930   -1.8210 C   0  0  0  0  0  0  0  0  0  0  0  0
   14.4770    3.4620   -0.8120 C   0  0  0  0  0  0  0  0  0  0  0  0
   14.7380    4.1250    0.4270 C   0  0  0  0  0  0  0  0  0  0  0  0
   14.9420    4.6650    1.4290 N   0  0  0  0  0  0  0  0  0  0  0  0
   14.9660    2.1660   -1.0400 C   0  0  0  0  0  0  0  0  0  0  0  0
   14.8240   -0.8650   -1.6100 C   0  0  0  0  0  0  0  0  0  0  0  0
   13.2470   -3.1650   -0.7070 C   0  0  0  0  0  0  0  0  0  0  0  0
   12.3540   -3.2550   -1.4890 O   0  0  0  0  0  0  0  0  0  0  0  0
   11.6510   -1.4420    1.4460 H   0  0  0  0  0  0  0  0  0  0  0  0
   10.8810   -2.9400    0.7100 H   0  0  0  0  0  0  0  0  0  0  0  0
   11.6490   -3.0310    2.3640 H   0  0  0  0  0  0  0  0  0  0  0  0
   15.3550   -2.4970    3.1370 H   0  0  0  0  0  0  0  0  0  0  0  0
   16.2530   -3.0850    0.8590 H   0  0  0  0  0  0  0  0  0  0  0  0
   17.2840   -4.3330   -0.5600 H   0  0  0  0  0  0  0  0  0  0  0  0
   17.9730   -6.6920   -0.7980 H   0  0  0  0  0  0  0  0  0  0  0  0
   16.3180   -8.4160   -1.5320 H   0  0  0  0  0  0  0  0  0  0  0  0
   14.0200   -7.7120   -2.2120 H   0  0  0  0  0  0  0  0  0  0  0  0
   13.3210   -5.3560   -1.9820 H   0  0  0  0  0  0  0  0  0  0  0  0
   16.3310   -3.5060   -3.1800 H   0  0  0  0  0  0  0  0  0  0  0  0
   16.9360   -1.6820   -4.7630 H   0  0  0  0  0  0  0  0  0  0  0  0
   16.1620    0.6380   -4.3750 H   0  0  0  0  0  0  0  0  0  0  0  0
   13.6720    1.7640   -4.1880 H   0  0  0  0  0  0  0  0  0  0  0  0
   13.3020    5.1090   -1.6810 H   0  0  0  0  0  0  0  0  0  0  0  0
   15.5620    1.6490   -0.2830 H   0  0  0  0  0  0  0  0  0  0  0  0
   14.2560   -0.6280   -0.7100 H   0  0  0  0  0  0  0  0  0  0  0  0
   13.6450   -2.1670    3.3390 H   0  0  0  0  0  0  0  0  0  0  0  0
  1  2  1  0  0  0  0
  1 29  1  0  0  0  0
  1 30  1  0  0  0  0
  1 31  1  0  0  0  0
  2  3  1  0  0  0  0
  2 27  1  0  0  0  0
  3  4  1  0  0  0  0
  3  5  2  0  0  0  0
  4 32  1  0  0  0  0
  4 46  1  0  0  0  0
  5  6  1  0  0  0  0
  5 33  1  0  0  0  0
  6  7  1  0  0  0  0
  6 13  1  0  0  0  0
  6 27  1  0  0  0  0
  7  8  2  0  0  0  0
  7 12  1  0  0  0  0
  8  9  1  0  0  0  0
  8 34  1  0  0  0  0
  9 10  2  0  0  0  0
  9 35  1  0  0  0  0
 10 11  1  0  0  0  0
 10 36  1  0  0  0  0
 11 12  2  0  0  0  0
 11 37  1  0  0  0  0
 12 38  1  0  0  0  0
 13 14  2  0  0  0  0
 13 26  1  0  0  0  0
 14 15  1  0  0  0  0
 14 39  1  0  0  0  0
 15 16  2  0  0  0  0
 15 40  1  0  0  0  0
 16 17  1  0  0  0  0
 16 41  1  0  0  0  0
 17 18  1  0  0  0  0
 17 26  2  0  0  0  0
 18 19  2  0  0  0  0
 18 25  1  0  0  0  0
 19 20  1  0  0  0  0
 19 42  1  0  0  0  0
 20 21  2  0  0  0  0
 21 22  1  0  0  0  0
 21 43  1  0  0  0  0
 22 23  1  0  0  0  0
 22 25  2  0  0  0  0
 23 24  3  0  0  0  0
 25 44  1  0  0  0  0
 26 45  1  0  0  0  0
 27 28  2  0  0  0  0
M  CHG  1   5   1
M  END
$$$$
