58
                    3D
 Schrodinger Suite 2022-3.
 47 49  0  0  1  0  0  0  0  0999 V2000
    3.7050  -48.4920    7.3160 O   0  0  0  0  0  0  0  0  0  0  0  0
    3.2980  -49.2350    6.4130 C   0  0  0  0  0  0  0  0  0  0  0  0
    3.9740  -49.8330    5.5570 O   0  5  0  0  0  0  0  0  0  0  0  0
    1.7810  -49.4850    6.3350 C   0  0  0  0  0  0  0  0  0  0  0  0
   -0.1390  -50.7200    6.4400 C   0  0  0  0  0  0  0  0  0  0  0  0
   -1.1170  -51.7160    6.6100 C   0  0  0  0  0  0  0  0  0  0  0  0
   -2.4010  -51.3520    6.2540 C   0  0  0  0  0  0  0  0  0  0  0  0
   -2.7710  -50.0870    5.7590 C   0  0  0  0  0  0  0  0  0  0  0  0
   -1.8010  -49.1070    5.6010 C   0  0  0  0  0  0  0  0  0  0  0  0
   -0.4720  -49.4030    5.9430 C   0  0  0  0  0  0  0  0  0  0  0  0
    0.7560  -48.6450    5.9110 C   0  0  0  0  0  0  0  0  0  0  0  0
    0.8090  -47.2110    5.5250 C   0  0  0  0  0  0  0  0  0  0  0  0
    0.6680  -46.2800    6.7440 C   0  0  0  0  0  0  0  0  0  0  0  0
   -0.6920  -46.3470    7.4370 C   0  0  0  0  0  0  0  0  0  0  0  0
   -1.6170  -45.7240    6.4700 O   0  0  0  0  0  0  0  0  0  0  0  0
   -2.8960  -45.4780    6.8610 C   0  0  0  0  0  0  0  0  0  0  0  0
   -3.4600  -45.8610    8.0880 C   0  0  0  0  0  0  0  0  0  0  0  0
   -4.7930  -45.5280    8.3610 C   0  0  0  0  0  0  0  0  0  0  0  0
   -5.4250  -45.9000    9.6610 C   0  0  0  0  0  0  0  0  0  0  0  0
   -5.5320  -44.8400    7.3860 C   0  0  0  0  0  0  0  0  0  0  0  0
   -7.1950  -44.4930    7.6970 Cl  0  0  0  0  0  0  0  0  0  0  0  0
   -4.9810  -44.4580    6.1480 C   0  0  0  0  0  0  0  0  0  0  0  0
   -5.8180  -43.7890    5.1100 C   0  0  0  0  0  0  0  0  0  0  0  0
   -3.6480  -44.7760    5.8930 C   0  0  0  0  0  0  0  0  0  0  0  0
   -0.8820  -52.7080    6.9950 H   0  0  0  0  0  0  0  0  0  0  0  0
   -3.6540  -52.5510    6.3810 Cl  0  0  0  0  0  0  0  0  0  0  0  0
   -3.8120  -49.8910    5.5010 H   0  0  0  0  0  0  0  0  0  0  0  0
   -2.0790  -48.1230    5.2160 H   0  0  0  0  0  0  0  0  0  0  0  0
   -0.0390  -46.9910    4.8260 H   0  0  0  0  0  0  0  0  0  0  0  0
    1.7670  -46.9700    5.0050 H   0  0  0  0  0  0  0  0  0  0  0  0
    0.8240  -45.2270    6.4120 H   0  0  0  0  0  0  0  0  0  0  0  0
    1.4390  -46.5650    7.4990 H   0  0  0  0  0  0  0  0  0  0  0  0
   -0.7120  -45.7250    8.3580 H   0  0  0  0  0  0  0  0  0  0  0  0
   -1.0530  -47.3850    7.6000 H   0  0  0  0  0  0  0  0  0  0  0  0
   -2.8990  -46.4290    8.8250 H   0  0  0  0  0  0  0  0  0  0  0  0
   -5.8550  -44.9980   10.1590 H   0  0  0  0  0  0  0  0  0  0  0  0
   -6.2620  -46.6200    9.4860 H   0  0  0  0  0  0  0  0  0  0  0  0
   -4.6940  -46.3810   10.3490 H   0  0  0  0  0  0  0  0  0  0  0  0
   -5.1890  -43.4180    4.2680 H   0  0  0  0  0  0  0  0  0  0  0  0
   -6.5590  -44.5270    4.7100 H   0  0  0  0  0  0  0  0  0  0  0  0
   -6.3850  -42.9290    5.5350 H   0  0  0  0  0  0  0  0  0  0  0  0
   -3.1880  -44.4990    4.9510 H   0  0  0  0  0  0  0  0  0  0  0  0
    1.9280  -51.9010    7.2510 C   0  0  0  0  0  0  0  0  0  0  0  0
    1.6120  -52.8510    6.7340 H   0  0  0  0  0  0  0  0  0  0  0  0
    3.0420  -51.8190    7.1690 H   0  0  0  0  0  0  0  0  0  0  0  0
    1.6540  -52.0030    8.3390 H   0  0  0  0  0  0  0  0  0  0  0  0
    1.2440  -50.7460    6.6560 N   0  0  0  0  0  0  0  0  0  0  0  0
  1  2  2  0  0  0  0
  2  3  1  0  0  0  0
  2  4  1  0  0  0  0
  4 11  2  0  0  0  0
  4 47  1  0  0  0  0
  5  6  1  0  0  0  0
  5 10  2  0  0  0  0
  5 47  1  0  0  0  0
  6  7  2  0  0  0  0
  6 25  1  0  0  0  0
  7  8  1  0  0  0  0
  7 26  1  0  0  0  0
  8  9  2  0  0  0  0
  8 27  1  0  0  0  0
  9 10  1  0  0  0  0
  9 28  1  0  0  0  0
 10 11  1  0  0  0  0
 11 12  1  0  0  0  0
 12 29  1  0  0  0  0
 12 30  1  0  0  0  0
 12 13  1  0  0  0  0
 13 14  1  0  0  0  0
 13 31  1  0  0  0  0
 13 32  1  0  0  0  0
 14 15  1  0  0  0  0
 14 33  1  0  0  0  0
 14 34  1  0  0  0  0
 15 16  1  0  0  0  0
 16 17  1  0  0  0  0
 16 24  2  0  0  0  0
 17 18  2  0  0  0  0
 17 35  1  0  0  0  0
 18 19  1  0  0  0  0
 18 20  1  0  0  0  0
 19 36  1  0  0  0  0
 19 37  1  0  0  0  0
 19 38  1  0  0  0  0
 20 21  1  0  0  0  0
 20 22  2  0  0  0  0
 22 23  1  0  0  0  0
 22 24  1  0  0  0  0
 23 39  1  0  0  0  0
 23 40  1  0  0  0  0
 23 41  1  0  0  0  0
 24 42  1  0  0  0  0
 43 44  1  0  0  0  0
 43 45  1  0  0  0  0
 43 46  1  0  0  0  0
 43 47  1  0  0  0  0
M  CHG  1   3  -1
M  END
$$$$
