p38a_2y
 OpenBabel02232411163D
Structure written by MMmdl.
 45 47  0  0  0  0  0  0  0  0999 V2000
   38.3060   36.5600   17.1410 C   0  0  0  0  0  0  0  0  0  0  0  0
   34.3550   35.0730   21.0830 C   0  0  0  0  0  0  0  0  0  0  0  0
   37.5200   36.0880   18.1900 C   0  0  0  0  0  0  0  0  0  0  0  0
   33.5670   39.1550   23.5590 C   0  0  0  0  0  0  0  0  0  0  0  0
   32.5260   39.1110   25.8450 C   0  0  0  0  0  0  0  0  0  0  0  0
   34.5080   37.9470   21.2670 C   0  0  0  0  0  0  0  0  0  0  0  0
   35.0310   37.2850   20.1030 C   0  0  0  0  0  0  0  0  0  0  0  0
   37.6620   36.7270   15.9080 C   0  0  0  0  0  0  0  0  0  0  0  0
   36.3160   36.4220   15.6920 C   0  0  0  0  0  0  0  0  0  0  0  0
   35.5530   35.9320   16.7570 C   0  0  0  0  0  0  0  0  0  0  0  0
   33.9160   37.1870   22.3190 C   0  0  0  0  0  0  0  0  0  0  0  0
   34.5720   39.3550   21.4480 C   0  0  0  0  0  0  0  0  0  0  0  0
   34.9730   35.9350   20.0400 C   0  0  0  0  0  0  0  0  0  0  0  0
   36.1620   35.7550   18.0020 C   0  0  0  0  0  0  0  0  0  0  0  0
   33.1840   35.0230   23.3180 C   0  0  0  0  0  0  0  0  0  0  0  0
   38.0440   35.9490   19.4000 F   0  0  0  0  0  0  0  0  0  0  0  0
   35.4520   35.1100   19.0240 O   0  0  0  0  0  0  0  0  0  0  0  0
   34.1410   39.9680   22.5600 N   0  0  0  0  0  0  0  0  0  0  0  0
   34.2760   33.8640   21.0380 O   0  0  0  0  0  0  0  0  0  0  0  0
   33.8240   35.7890   22.2110 N   0  0  0  0  0  0  0  0  0  0  0  0
   33.4410   37.7840   23.4600 N   0  0  0  0  0  0  0  0  0  0  0  0
   33.0410   39.8120   24.6510 N   0  0  0  0  0  0  0  0  0  0  0  0
   39.3570   36.8260   17.2840 H   0  0  0  0  0  0  0  0  0  0  0  0
   32.0680   38.1280   25.5490 H   0  0  0  0  0  0  0  0  0  0  0  0
   35.4660   37.9000   19.3130 H   0  0  0  0  0  0  0  0  0  0  0  0
   35.8480   36.5760   14.7180 H   0  0  0  0  0  0  0  0  0  0  0  0
   34.4910   35.7080   16.6100 H   0  0  0  0  0  0  0  0  0  0  0  0
   34.9950   39.9910   20.6550 H   0  0  0  0  0  0  0  0  0  0  0  0
   33.7900   35.1260   24.2580 H   0  0  0  0  0  0  0  0  0  0  0  0
   32.1530   35.4250   23.5130 H   0  0  0  0  0  0  0  0  0  0  0  0
   33.1080   33.9380   23.0470 H   0  0  0  0  0  0  0  0  0  0  0  0
   33.3200   40.7980   24.8230 H   0  0  0  0  0  0  0  0  0  0  0  0
   38.3600   37.2410   14.8980 F   0  0  0  0  0  0  0  0  0  0  0  0
   33.6080   38.8740   26.9530 C   0  0  0  0  0  0  0  0  0  0  0  0
   31.7140   39.7670   26.2670 H   0  0  0  0  0  0  0  0  0  0  0  0
   34.2150   40.1750   27.4760 C   0  0  0  0  0  0  0  0  0  0  0  0
   32.8860   38.3520   28.1000 O   0  0  0  0  0  0  0  0  0  0  0  0
   34.6690   37.8620   26.5200 C   0  0  0  0  0  0  0  0  0  0  0  0
   32.5380   37.4470   27.9040 H   0  0  0  0  0  0  0  0  0  0  0  0
   34.8340   39.9780   28.3800 H   0  0  0  0  0  0  0  0  0  0  0  0
   34.8590   40.6450   26.6990 H   0  0  0  0  0  0  0  0  0  0  0  0
   33.4140   40.9010   27.7440 H   0  0  0  0  0  0  0  0  0  0  0  0
   35.2240   37.4960   27.4120 H   0  0  0  0  0  0  0  0  0  0  0  0
   34.2060   36.9860   26.0090 H   0  0  0  0  0  0  0  0  0  0  0  0
   35.3940   38.3300   25.8200 H   0  0  0  0  0  0  0  0  0  0  0  0
  1  3  2  0  0  0  0
  1  8  1  0  0  0  0
  1 23  1  0  0  0  0
  2 13  1  0  0  0  0
  2 19  2  0  0  0  0
  2 20  1  0  0  0  0
  3 14  1  0  0  0  0
  3 16  1  0  0  0  0
  4 18  2  0  0  0  0
  4 21  1  0  0  0  0
  4 22  1  0  0  0  0
  5 22  1  0  0  0  0
  5 24  1  0  0  0  0
  5 34  1  0  0  0  0
  5 35  1  0  0  0  0
  6  7  1  0  0  0  0
  6 11  1  0  0  0  0
  6 12  2  0  0  0  0
  7 13  2  0  0  0  0
  7 25  1  0  0  0  0
  8  9  2  0  0  0  0
  8 33  1  0  0  0  0
  9 10  1  0  0  0  0
  9 26  1  0  0  0  0
 10 14  2  0  0  0  0
 10 27  1  0  0  0  0
 11 20  1  0  0  0  0
 11 21  2  0  0  0  0
 12 18  1  0  0  0  0
 12 28  1  0  0  0  0
 13 17  1  0  0  0  0
 14 17  1  0  0  0  0
 15 20  1  0  0  0  0
 15 29  1  0  0  0  0
 15 30  1  0  0  0  0
 15 31  1  0  0  0  0
 22 32  1  0  0  0  0
 34 36  1  0  0  0  0
 34 37  1  0  0  0  0
 34 38  1  0  0  0  0
 36 40  1  0  0  0  0
 36 41  1  0  0  0  0
 36 42  1  0  0  0  0
 37 39  1  0  0  0  0
 38 43  1  0  0  0  0
 38 44  1  0  0  0  0
 38 45  1  0  0  0  0
M  END
$$$$
