31
 OpenBabel02232411153D
Structure written by MMmdl.
 50 53  0  0  0  0  0  0  0  0999 V2000
    1.6540   28.9410    6.8550 C   0  0  0  0  0  0  0  0  0  0  0  0
   -1.7660   31.5890    8.0660 C   0  0  0  0  0  0  0  0  0  0  0  0
   -0.3660   26.0520    8.8610 C   0  0  0  0  0  0  0  0  0  0  0  0
   -1.0440   25.3240   10.0270 C   0  0  0  0  0  0  0  0  0  0  0  0
   -0.8190   23.8100    9.8000 C   0  0  0  0  0  0  0  0  0  0  0  0
   -1.3410   22.9780   10.9790 C   0  0  0  0  0  0  0  0  0  0  0  0
   -0.7370   23.4470   12.3120 C   0  0  0  0  0  0  0  0  0  0  0  0
   -1.0050   24.9430   12.5420 C   0  0  0  0  0  0  0  0  0  0  0  0
   -0.4610   25.7850   11.3780 C   0  0  0  0  0  0  0  0  0  0  0  0
    3.9570   25.4840    8.2870 C   0  0  0  0  0  0  0  0  0  0  0  0
    4.7920   24.8840    7.3400 C   0  0  0  0  0  0  0  0  0  0  0  0
    5.0520   25.5090    6.1240 C   0  0  0  0  0  0  0  0  0  0  0  0
    4.4370   26.7280    5.8270 C   0  0  0  0  0  0  0  0  0  0  0  0
    0.8960   27.9850    7.5280 N   0  0  0  0  0  0  0  0  0  0  0  0
   -0.2760   28.3290    8.1140 C   0  0  0  0  0  0  0  0  0  0  0  0
   -0.9560   27.4180    8.8290 O   0  0  0  0  0  0  0  0  0  0  0  0
   -0.7620   29.6560    7.9830 C   0  0  0  0  0  0  0  0  0  0  0  0
   -1.8900   30.3230    8.4720 N   0  0  0  0  0  0  0  0  0  0  0  0
   -0.5600   31.8050    7.3100 N   0  0  0  0  0  0  0  0  0  0  0  0
    0.0840   30.5740    7.2340 C   0  0  0  0  0  0  0  0  0  0  0  0
    1.2780   30.2540    6.6340 N   0  0  0  0  0  0  0  0  0  0  0  0
    2.8890   28.5200    6.3740 N   0  0  0  0  0  0  0  0  0  0  0  0
    3.5460   27.3050    6.7540 C   0  0  0  0  0  0  0  0  0  0  0  0
    3.3480   26.7040    8.0120 C   0  0  0  0  0  0  0  0  0  0  0  0
   -2.4510   32.4050    8.2780 H   0  0  0  0  0  0  0  0  0  0  0  0
    0.7330   26.1250    9.0240 H   0  0  0  0  0  0  0  0  0  0  0  0
   -0.6100   25.6030    7.8770 H   0  0  0  0  0  0  0  0  0  0  0  0
   -2.1410   25.5310   10.0300 H   0  0  0  0  0  0  0  0  0  0  0  0
   -1.3430   23.4940    8.8720 H   0  0  0  0  0  0  0  0  0  0  0  0
    0.2760   23.6110    9.6820 H   0  0  0  0  0  0  0  0  0  0  0  0
   -2.4460   23.0730   11.0360 H   0  0  0  0  0  0  0  0  0  0  0  0
   -1.0790   21.9060   10.8190 H   0  0  0  0  0  0  0  0  0  0  0  0
   -1.1800   22.8570   13.1470 H   0  0  0  0  0  0  0  0  0  0  0  0
    0.3640   23.2720   12.2930 H   0  0  0  0  0  0  0  0  0  0  0  0
   -2.1000   25.1120   12.6570 H   0  0  0  0  0  0  0  0  0  0  0  0
   -0.5020   25.2640   13.4840 H   0  0  0  0  0  0  0  0  0  0  0  0
    0.6510   25.6850   11.3630 H   0  0  0  0  0  0  0  0  0  0  0  0
   -0.7180   26.8550   11.5460 H   0  0  0  0  0  0  0  0  0  0  0  0
    3.7580   24.9950    9.2460 H   0  0  0  0  0  0  0  0  0  0  0  0
    5.7160   25.0630    5.3770 H   0  0  0  0  0  0  0  0  0  0  0  0
    4.6360   27.2230    4.8740 H   0  0  0  0  0  0  0  0  0  0  0  0
   -0.2760   32.6780    6.8430 H   0  0  0  0  0  0  0  0  0  0  0  0
    3.4450   29.1490    5.7510 H   0  0  0  0  0  0  0  0  0  0  0  0
    2.7100   27.1590    8.7680 H   0  0  0  0  0  0  0  0  0  0  0  0
    5.4620   23.3160    7.8650 S   0  3  1  0  0  0  0  0  0  0  0  0
    6.6140   22.9970    6.9410 O   0  5  0  0  0  0  0  0  0  0  0  0
    4.0750   22.2580    7.3730 C   0  0  0  0  0  0  0  0  0  0  0  0
    3.6730   22.4630    6.3620 H   0  0  0  0  0  0  0  0  0  0  0  0
    4.3740   21.1880    7.4360 H   0  0  0  0  0  0  0  0  0  0  0  0
    3.2600   22.4240    8.1220 H   0  0  0  0  0  0  0  0  0  0  0  0
  1 14  2  0  0  0  0
  1 21  1  0  0  0  0
  1 22  1  0  0  0  0
  2 18  2  0  0  0  0
  2 19  1  0  0  0  0
  2 25  1  0  0  0  0
  3  4  1  0  0  0  0
  3 16  1  0  0  0  0
  3 26  1  0  0  0  0
  3 27  1  0  0  0  0
  4  5  1  0  0  0  0
  4  9  1  0  0  0  0
  4 28  1  0  0  0  0
  5  6  1  0  0  0  0
  5 29  1  0  0  0  0
  5 30  1  0  0  0  0
  6  7  1  0  0  0  0
  6 31  1  0  0  0  0
  6 32  1  0  0  0  0
  7  8  1  0  0  0  0
  7 33  1  0  0  0  0
  7 34  1  0  0  0  0
  8  9  1  0  0  0  0
  8 35  1  0  0  0  0
  8 36  1  0  0  0  0
  9 37  1  0  0  0  0
  9 38  1  0  0  0  0
 10 11  2  0  0  0  0
 10 24  1  0  0  0  0
 10 39  1  0  0  0  0
 11 12  1  0  0  0  0
 11 45  1  0  0  0  0
 12 13  2  0  0  0  0
 12 40  1  0  0  0  0
 13 23  1  0  0  0  0
 13 41  1  0  0  0  0
 14 15  1  0  0  0  0
 15 16  1  0  0  0  0
 15 17  2  0  0  0  0
 17 18  1  0  0  0  0
 17 20  1  0  0  0  0
 19 20  1  0  0  0  0
 19 42  1  0  0  0  0
 20 21  2  0  0  0  0
 22 23  1  0  0  0  0
 22 43  1  0  0  0  0
 23 24  2  0  0  0  0
 24 44  1  0  0  0  0
 45 46  1  1  0  0  0
 45 47  1  0  0  0  0
 47 48  1  0  0  0  0
 47 49  1  0  0  0  0
 47 50  1  0  0  0  0
M  CHG  2  45   1  46  -1
M  END
$$$$
