22
 OpenBabel02232411153D
Structure written by MMmdl.
 49 52  0  0  0  0  0  0  0  0999 V2000
    1.8220   28.8470    6.8490 C   0  0  0  0  0  0  0  0  0  0  0  0
   -1.6330   31.4840    7.9980 C   0  0  0  0  0  0  0  0  0  0  0  0
   -0.2050   25.9810    8.9080 C   0  0  0  0  0  0  0  0  0  0  0  0
   -0.9530   25.2820   10.0510 C   0  0  0  0  0  0  0  0  0  0  0  0
   -0.7560   23.7610    9.8570 C   0  0  0  0  0  0  0  0  0  0  0  0
   -1.3530   22.9630   11.0240 C   0  0  0  0  0  0  0  0  0  0  0  0
   -0.7960   23.4370   12.3760 C   0  0  0  0  0  0  0  0  0  0  0  0
   -1.0310   24.9430   12.5740 C   0  0  0  0  0  0  0  0  0  0  0  0
   -0.4270   25.7560   11.4200 C   0  0  0  0  0  0  0  0  0  0  0  0
    4.3430   25.4030    8.1430 C   0  0  0  0  0  0  0  0  0  0  0  0
    5.1760   24.8630    7.1590 C   0  0  0  0  0  0  0  0  0  0  0  0
    5.2900   25.5280    5.9350 C   0  0  0  0  0  0  0  0  0  0  0  0
    4.6010   26.7070    5.6740 C   0  0  0  0  0  0  0  0  0  0  0  0
    1.0870   27.9000    7.5580 N   0  0  0  0  0  0  0  0  0  0  0  0
   -0.1050   28.2420    8.1070 C   0  0  0  0  0  0  0  0  0  0  0  0
   -0.7970   27.3420    8.8240 O   0  0  0  0  0  0  0  0  0  0  0  0
   -0.6120   29.5580    7.9390 C   0  0  0  0  0  0  0  0  0  0  0  0
   -1.7500   30.2200    8.4130 N   0  0  0  0  0  0  0  0  0  0  0  0
   -0.4210   31.7030    7.2520 N   0  0  0  0  0  0  0  0  0  0  0  0
    0.2300   30.4740    7.1860 C   0  0  0  0  0  0  0  0  0  0  0  0
    1.4260   30.1510    6.5950 N   0  0  0  0  0  0  0  0  0  0  0  0
    3.0550   28.4450    6.3530 N   0  0  0  0  0  0  0  0  0  0  0  0
    3.7410   27.2250    6.6680 C   0  0  0  0  0  0  0  0  0  0  0  0
    3.6290   26.5800    7.9110 C   0  0  0  0  0  0  0  0  0  0  0  0
   -2.3260   32.2970    8.1930 H   0  0  0  0  0  0  0  0  0  0  0  0
    0.8830   26.0650    9.1290 H   0  0  0  0  0  0  0  0  0  0  0  0
   -0.3960   25.5130    7.9210 H   0  0  0  0  0  0  0  0  0  0  0  0
   -2.0430   25.5170    9.9950 H   0  0  0  0  0  0  0  0  0  0  0  0
   -1.2470   23.4440    8.9110 H   0  0  0  0  0  0  0  0  0  0  0  0
    0.3370   23.5350    9.7900 H   0  0  0  0  0  0  0  0  0  0  0  0
   -2.4570   23.0920   11.0290 H   0  0  0  0  0  0  0  0  0  0  0  0
   -1.1180   21.8820   10.8920 H   0  0  0  0  0  0  0  0  0  0  0  0
   -1.2900   22.8730   13.1990 H   0  0  0  0  0  0  0  0  0  0  0  0
    0.3000   23.2330   12.4080 H   0  0  0  0  0  0  0  0  0  0  0  0
   -2.1240   25.1420   12.6530 H   0  0  0  0  0  0  0  0  0  0  0  0
   -0.5500   25.2640   13.5280 H   0  0  0  0  0  0  0  0  0  0  0  0
    0.6850   25.6450   11.4570 H   0  0  0  0  0  0  0  0  0  0  0  0
   -0.6770   26.8320   11.5590 H   0  0  0  0  0  0  0  0  0  0  0  0
    4.2320   24.8910    9.1020 H   0  0  0  0  0  0  0  0  0  0  0  0
    5.7090   23.9300    7.3450 H   0  0  0  0  0  0  0  0  0  0  0  0
    4.7170   27.2380    4.7260 H   0  0  0  0  0  0  0  0  0  0  0  0
   -0.1480   32.5800    6.7830 H   0  0  0  0  0  0  0  0  0  0  0  0
    3.5800   29.0890    5.7160 H   0  0  0  0  0  0  0  0  0  0  0  0
    2.9830   26.9700    8.7000 H   0  0  0  0  0  0  0  0  0  0  0  0
    6.3860   24.8030    4.7570 S   0  0  0  0  0  0  0  0  0  0  0  0
    5.4480   24.8420    3.2120 C   0  0  0  0  0  0  0  0  0  0  0  0
    5.8230   24.0010    2.5780 H   0  0  0  0  0  0  0  0  0  0  0  0
    4.3570   24.6990    3.3810 H   0  0  0  0  0  0  0  0  0  0  0  0
    5.6170   25.8030    2.6760 H   0  0  0  0  0  0  0  0  0  0  0  0
  1 14  2  0  0  0  0
  1 21  1  0  0  0  0
  1 22  1  0  0  0  0
  2 18  2  0  0  0  0
  2 19  1  0  0  0  0
  2 25  1  0  0  0  0
  3  4  1  0  0  0  0
  3 16  1  0  0  0  0
  3 26  1  0  0  0  0
  3 27  1  0  0  0  0
  4  5  1  0  0  0  0
  4  9  1  0  0  0  0
  4 28  1  0  0  0  0
  5  6  1  0  0  0  0
  5 29  1  0  0  0  0
  5 30  1  0  0  0  0
  6  7  1  0  0  0  0
  6 31  1  0  0  0  0
  6 32  1  0  0  0  0
  7  8  1  0  0  0  0
  7 33  1  0  0  0  0
  7 34  1  0  0  0  0
  8  9  1  0  0  0  0
  8 35  1  0  0  0  0
  8 36  1  0  0  0  0
  9 37  1  0  0  0  0
  9 38  1  0  0  0  0
 10 11  2  0  0  0  0
 10 24  1  0  0  0  0
 10 39  1  0  0  0  0
 11 12  1  0  0  0  0
 11 40  1  0  0  0  0
 12 13  2  0  0  0  0
 12 45  1  0  0  0  0
 13 23  1  0  0  0  0
 13 41  1  0  0  0  0
 14 15  1  0  0  0  0
 15 16  1  0  0  0  0
 15 17  2  0  0  0  0
 17 18  1  0  0  0  0
 17 20  1  0  0  0  0
 19 20  1  0  0  0  0
 19 42  1  0  0  0  0
 20 21  2  0  0  0  0
 22 23  1  0  0  0  0
 22 43  1  0  0  0  0
 23 24  2  0  0  0  0
 24 44  1  0  0  0  0
 45 46  1  0  0  0  0
 46 47  1  0  0  0  0
 46 48  1  0  0  0  0
 46 49  1  0  0  0  0
M  END
$$$$
