p38a_3flz
 OpenBabel02232411163D
Structure written by MMmdl.
 46 49  0  0  0  0  0  0  0  0999 V2000
   35.1220   35.1690   19.0280 O   0  0  0  0  0  0  0  0  0  0  0  0
   34.9800   37.2710   20.2760 C   0  0  0  0  0  0  0  0  0  0  0  0
   34.1720   37.1030   22.6160 C   0  0  0  0  0  0  0  0  0  0  0  0
   34.6170   37.8960   21.5160 C   0  0  0  0  0  0  0  0  0  0  0  0
   34.6750   39.3010   21.7210 C   0  0  0  0  0  0  0  0  0  0  0  0
   33.9630   39.0400   23.9420 C   0  0  0  0  0  0  0  0  0  0  0  0
   34.8780   35.9230   20.1700 C   0  0  0  0  0  0  0  0  0  0  0  0
   36.1400   35.6310   18.1750 C   0  0  0  0  0  0  0  0  0  0  0  0
   33.5790   34.9150   23.6480 C   0  0  0  0  0  0  0  0  0  0  0  0
   34.4150   38.1560   27.0400 C   0  0  0  0  0  0  0  0  0  0  0  0
   35.8030   35.6270   16.8160 C   0  0  0  0  0  0  0  0  0  0  0  0
   38.0880   36.2830   16.3320 C   0  0  0  0  0  0  0  0  0  0  0  0
   36.7990   35.9610   15.8950 C   0  0  0  0  0  0  0  0  0  0  0  0
   38.3990   36.2690   17.6960 C   0  0  0  0  0  0  0  0  0  0  0  0
   34.2260   33.8350   21.1650 O   0  0  0  0  0  0  0  0  0  0  0  0
   34.3760   35.0350   21.2500 C   0  0  0  0  0  0  0  0  0  0  0  0
   37.4230   35.9400   18.6410 C   0  0  0  0  0  0  0  0  0  0  0  0
   34.3650   39.8870   22.8870 N   0  0  0  0  0  0  0  0  0  0  0  0
   34.0520   35.7110   22.4800 N   0  0  0  0  0  0  0  0  0  0  0  0
   33.8510   37.6660   23.8250 N   0  0  0  0  0  0  0  0  0  0  0  0
   33.6460   39.6220   25.1430 N   0  0  0  0  0  0  0  0  0  0  0  0
   33.2150   38.8190   26.3330 C   0  0  0  0  0  0  0  0  0  0  0  0
   32.4190   39.7230   27.2960 C   0  0  0  0  0  0  0  0  0  0  0  0
   33.3070   40.5790   28.2070 C   0  0  0  0  0  0  0  0  0  0  0  0
   34.3490   39.8130   28.8460 O   0  0  0  0  0  0  0  0  0  0  0  0
   35.2100   39.1460   27.8930 C   0  0  0  0  0  0  0  0  0  0  0  0
   35.3350   37.9040   19.4580 H   0  0  0  0  0  0  0  0  0  0  0  0
   34.9820   39.9600   20.8920 H   0  0  0  0  0  0  0  0  0  0  0  0
   33.5780   33.8230   23.4010 H   0  0  0  0  0  0  0  0  0  0  0  0
   34.2520   35.0910   24.5310 H   0  0  0  0  0  0  0  0  0  0  0  0
   32.5390   35.2320   23.9310 H   0  0  0  0  0  0  0  0  0  0  0  0
   34.0130   37.3350   27.6880 H   0  0  0  0  0  0  0  0  0  0  0  0
   35.0930   37.6830   26.2890 H   0  0  0  0  0  0  0  0  0  0  0  0
   34.7870   35.4140   16.4810 H   0  0  0  0  0  0  0  0  0  0  0  0
   38.8460   36.5840   15.6140 H   0  0  0  0  0  0  0  0  0  0  0  0
   36.5590   35.9960   14.8320 H   0  0  0  0  0  0  0  0  0  0  0  0
   39.4070   36.5370   18.0170 H   0  0  0  0  0  0  0  0  0  0  0  0
   37.6550   35.9590   19.7040 H   0  0  0  0  0  0  0  0  0  0  0  0
   33.7370   40.6490   25.2600 H   0  0  0  0  0  0  0  0  0  0  0  0
   32.5250   38.0030   25.9630 H   0  0  0  0  0  0  0  0  0  0  0  0
   31.7520   40.4000   26.7070 H   0  0  0  0  0  0  0  0  0  0  0  0
   31.7700   39.0600   27.9210 H   0  0  0  0  0  0  0  0  0  0  0  0
   33.7810   41.4070   27.6340 H   0  0  0  0  0  0  0  0  0  0  0  0
   32.7270   40.9690   29.0760 H   0  0  0  0  0  0  0  0  0  0  0  0
   35.9350   38.6240   28.5580 H   0  0  0  0  0  0  0  0  0  0  0  0
   35.7080   39.9140   27.2580 H   0  0  0  0  0  0  0  0  0  0  0  0
  1  7  1  0  0  0  0
  1  8  1  0  0  0  0
  2  4  1  0  0  0  0
  2  7  2  0  0  0  0
  2 27  1  0  0  0  0
  3  4  2  0  0  0  0
  3 19  1  0  0  0  0
  3 20  1  0  0  0  0
  4  5  1  0  0  0  0
  5 18  2  0  0  0  0
  5 28  1  0  0  0  0
  6 18  1  0  0  0  0
  6 20  2  0  0  0  0
  6 21  1  0  0  0  0
  7 16  1  0  0  0  0
  8 11  2  0  0  0  0
  8 17  1  0  0  0  0
  9 19  1  0  0  0  0
  9 29  1  0  0  0  0
  9 30  1  0  0  0  0
  9 31  1  0  0  0  0
 10 22  1  0  0  0  0
 10 26  1  0  0  0  0
 10 32  1  0  0  0  0
 10 33  1  0  0  0  0
 11 13  1  0  0  0  0
 11 34  1  0  0  0  0
 12 13  2  0  0  0  0
 12 14  1  0  0  0  0
 12 35  1  0  0  0  0
 13 36  1  0  0  0  0
 14 17  2  0  0  0  0
 14 37  1  0  0  0  0
 15 16  2  0  0  0  0
 16 19  1  0  0  0  0
 17 38  1  0  0  0  0
 21 22  1  0  0  0  0
 21 39  1  0  0  0  0
 22 23  1  0  0  0  0
 22 40  1  0  0  0  0
 23 24  1  0  0  0  0
 23 41  1  0  0  0  0
 23 42  1  0  0  0  0
 24 25  1  0  0  0  0
 24 43  1  0  0  0  0
 24 44  1  0  0  0  0
 25 26  1  0  0  0  0
 26 45  1  0  0  0  0
 26 46  1  0  0  0  0
M  END
$$$$
