23473
 OpenBabel02232411173D
Structure written by MMmdl.
 41 43  0  0  0  0  0  0  0  0999 V2000
   42.6730   17.8420   12.5020 O   0  0  0  0  0  0  0  0  0  0  0  0
   41.5440   17.5240   12.8980 C   0  0  0  0  0  0  0  0  0  0  0  0
   40.5340   18.2600   12.9000 O   0  5  0  0  0  0  0  0  0  0  0  0
   41.3070   16.0630   13.4000 C   0  0  0  0  0  0  0  0  0  0  0  0
   42.6660   15.5680   13.6370 O   0  0  0  0  0  0  0  0  0  0  0  0
   42.8200   14.8280   14.7650 C   0  0  0  0  0  0  0  0  0  0  0  0
   42.2350   13.5210   14.9770 C   0  0  0  0  0  0  0  0  0  0  0  0
   40.9630   12.7660   13.7850 Br  0  0  0  0  0  0  0  0  0  0  0  0
   42.6770   12.8780   16.1030 C   0  0  0  0  0  0  0  0  0  0  0  0
   42.3060   11.5800   16.6280 C   0  0  0  0  0  0  0  0  0  0  0  0
   43.2820   10.6760   17.1150 C   0  0  0  0  0  0  0  0  0  0  0  0
   42.9080    9.4150   17.5600 C   0  0  0  0  0  0  0  0  0  0  0  0
   41.5670    8.9930   17.5310 C   0  0  0  0  0  0  0  0  0  0  0  0
   40.6150    9.8950   17.0610 C   0  0  0  0  0  0  0  0  0  0  0  0
   39.2400    9.6900   16.9910 O   0  0  0  0  0  0  0  0  0  0  0  0
   38.7020    8.3580   17.1690 C   0  0  0  0  0  0  0  0  0  0  0  0
   38.5410    7.6890   15.8240 C   0  0  0  0  0  0  0  0  0  0  0  0
   39.6570    7.2340   15.1060 C   0  0  0  0  0  0  0  0  0  0  0  0
   39.4870    6.5910   13.8760 C   0  0  0  0  0  0  0  0  0  0  0  0
   38.2050    6.3900   13.3560 C   0  0  0  0  0  0  0  0  0  0  0  0
   37.0900    6.8410   14.0690 C   0  0  0  0  0  0  0  0  0  0  0  0
   37.2560    7.4900   15.2960 C   0  0  0  0  0  0  0  0  0  0  0  0
   40.9600   11.1920   16.6360 C   0  0  0  0  0  0  0  0  0  0  0  0
   43.8490   13.8940   16.9060 S   0  0  0  0  0  0  0  0  0  0  0  0
   43.6870   15.1980   15.7610 C   0  0  0  0  0  0  0  0  0  0  0  0
   44.4620   16.4980   15.9610 C   0  0  0  0  0  0  0  0  0  0  0  0
   43.9670   17.5570   15.5810 O   0  0  0  0  0  0  0  0  0  0  0  0
   45.5870   16.3610   16.4900 O   0  5  0  0  0  0  0  0  0  0  0  0
   40.6820   16.0220   14.3170 H   0  0  0  0  0  0  0  0  0  0  0  0
   40.8730   15.4190   12.6060 H   0  0  0  0  0  0  0  0  0  0  0  0
   44.3370   10.9520   17.1400 H   0  0  0  0  0  0  0  0  0  0  0  0
   43.6570    8.7190   17.9440 H   0  0  0  0  0  0  0  0  0  0  0  0
   41.3210    7.9960   17.8830 H   0  0  0  0  0  0  0  0  0  0  0  0
   39.3200    7.7360   17.8570 H   0  0  0  0  0  0  0  0  0  0  0  0
   37.7130    8.5690   17.6520 H   0  0  0  0  0  0  0  0  0  0  0  0
   40.6690    7.3580   15.5060 H   0  0  0  0  0  0  0  0  0  0  0  0
   40.3610    6.2240   13.3280 H   0  0  0  0  0  0  0  0  0  0  0  0
   38.0730    5.8650   12.4090 H   0  0  0  0  0  0  0  0  0  0  0  0
   36.0850    6.6730   13.6750 H   0  0  0  0  0  0  0  0  0  0  0  0
   36.3710    7.8220   15.8460 H   0  0  0  0  0  0  0  0  0  0  0  0
   40.1650   11.8690   16.3180 H   0  0  0  0  0  0  0  0  0  0  0  0
  1  2  2  0  0  0  0
  2  3  1  0  0  0  0
  2  4  1  0  0  0  0
  4  5  1  0  0  0  0
  4 29  1  0  0  0  0
  4 30  1  0  0  0  0
  5  6  1  0  0  0  0
  6 25  2  0  0  0  0
  6  7  1  0  0  0  0
  7  8  1  0  0  0  0
  7  9  2  0  0  0  0
  9 10  1  0  0  0  0
  9 24  1  0  0  0  0
 10 23  2  0  0  0  0
 10 11  1  0  0  0  0
 11 12  2  0  0  0  0
 11 31  1  0  0  0  0
 12 13  1  0  0  0  0
 12 32  1  0  0  0  0
 13 14  2  0  0  0  0
 13 33  1  0  0  0  0
 14 15  1  0  0  0  0
 14 23  1  0  0  0  0
 15 16  1  0  0  0  0
 16 17  1  0  0  0  0
 16 34  1  0  0  0  0
 16 35  1  0  0  0  0
 17 22  2  0  0  0  0
 17 18  1  0  0  0  0
 18 19  2  0  0  0  0
 18 36  1  0  0  0  0
 19 20  1  0  0  0  0
 19 37  1  0  0  0  0
 20 21  2  0  0  0  0
 20 38  1  0  0  0  0
 21 22  1  0  0  0  0
 21 39  1  0  0  0  0
 22 40  1  0  0  0  0
 23 41  1  0  0  0  0
 24 25  1  0  0  0  0
 25 26  1  0  0  0  0
 26 27  2  0  0  0  0
 26 28  1  0  0  0  0
M  CHG  2   3  -1  28  -1
M  END
$$$$
