p38a_2u
 OpenBabel02232411163D
Structure written by MMmdl.
 64 68  0  0  0  0  0  0  0  0999 V2000
   38.1930   36.4540   17.2860 C   0  0  0  0  0  0  0  0  0  0  0  0
   34.5450   35.2110   21.5280 C   0  0  0  0  0  0  0  0  0  0  0  0
   37.4350   36.0510   18.3820 C   0  0  0  0  0  0  0  0  0  0  0  0
   34.1450   39.3840   23.9400 C   0  0  0  0  0  0  0  0  0  0  0  0
   34.6930   38.0850   21.5690 C   0  0  0  0  0  0  0  0  0  0  0  0
   35.0480   37.3830   20.3660 C   0  0  0  0  0  0  0  0  0  0  0  0
   37.5130   36.5720   16.0670 C   0  0  0  0  0  0  0  0  0  0  0  0
   36.1550   36.2840   15.9130 C   0  0  0  0  0  0  0  0  0  0  0  0
   35.4160   35.8760   17.0290 C   0  0  0  0  0  0  0  0  0  0  0  0
   34.3820   37.3560   22.7550 C   0  0  0  0  0  0  0  0  0  0  0  0
   34.6480   39.5030   21.6530 C   0  0  0  0  0  0  0  0  0  0  0  0
   35.0200   36.0320   20.3750 C   0  0  0  0  0  0  0  0  0  0  0  0
   36.0610   35.7500   18.2630 C   0  0  0  0  0  0  0  0  0  0  0  0
   38.0070   35.9450   19.5740 F   0  0  0  0  0  0  0  0  0  0  0  0
   35.3620   35.1730   19.3320 O   0  0  0  0  0  0  0  0  0  0  0  0
   34.3840   40.1630   22.7900 N   0  0  0  0  0  0  0  0  0  0  0  0
   34.3550   34.0150   21.4800 O   0  0  0  0  0  0  0  0  0  0  0  0
   34.3130   35.9470   22.7430 N   0  0  0  0  0  0  0  0  0  0  0  0
   34.1320   38.0030   23.9370 N   0  0  0  0  0  0  0  0  0  0  0  0
   33.8370   40.0390   25.1100 N   0  0  0  0  0  0  0  0  0  0  0  0
   39.2550   36.7010   17.3790 H   0  0  0  0  0  0  0  0  0  0  0  0
   35.3380   37.9690   19.4900 H   0  0  0  0  0  0  0  0  0  0  0  0
   35.6600   36.3860   14.9430 H   0  0  0  0  0  0  0  0  0  0  0  0
   34.3450   35.6730   16.9310 H   0  0  0  0  0  0  0  0  0  0  0  0
   34.8280   40.1070   20.7490 H   0  0  0  0  0  0  0  0  0  0  0  0
   33.9400   41.0700   25.1620 H   0  0  0  0  0  0  0  0  0  0  0  0
   38.1920   37.0150   15.0110 F   0  0  0  0  0  0  0  0  0  0  0  0
   32.7370   39.4560   28.7230 C   0  0  0  0  0  0  0  0  0  0  0  0
   32.7300   40.0530   27.3100 C   0  0  0  0  0  0  0  0  0  0  0  0
   33.7740   39.3360   26.4290 C   0  0  0  0  0  0  0  0  0  0  0  0
   35.1600   39.3520   27.1110 C   0  0  0  0  0  0  0  0  0  0  0  0
   35.0500   38.7900   28.5340 C   0  0  0  0  0  0  0  0  0  0  0  0
   34.0570   39.4960   29.3120 O   0  0  0  0  0  0  0  0  0  0  0  0
   32.3770   38.4010   28.7120 H   0  0  0  0  0  0  0  0  0  0  0  0
   32.1460   40.0860   29.4260 H   0  0  0  0  0  0  0  0  0  0  0  0
   32.9660   41.1420   27.3700 H   0  0  0  0  0  0  0  0  0  0  0  0
   31.7160   39.9380   26.8580 H   0  0  0  0  0  0  0  0  0  0  0  0
   33.4490   38.2700   26.2630 H   0  0  0  0  0  0  0  0  0  0  0  0
   35.8750   38.7260   26.5260 H   0  0  0  0  0  0  0  0  0  0  0  0
   35.5500   40.3970   27.1460 H   0  0  0  0  0  0  0  0  0  0  0  0
   34.7910   37.7060   28.5140 H   0  0  0  0  0  0  0  0  0  0  0  0
   35.9830   38.9770   29.1130 H   0  0  0  0  0  0  0  0  0  0  0  0
   33.9960   32.9020   25.0240 C   0  0  0  0  0  0  0  0  0  0  0  0
   34.7760   34.0870   24.4090 C   0  0  0  0  0  0  0  0  0  0  0  0
   33.8400   35.2390   23.9990 C   0  0  0  0  0  0  0  0  0  0  0  0
   32.3870   34.7650   23.8160 C   0  0  0  0  0  0  0  0  0  0  0  0
   31.8580   34.2240   25.1590 C   0  0  0  0  0  0  0  0  0  0  0  0
   34.7230   32.3340   25.6620 H   0  0  0  0  0  0  0  0  0  0  0  0
   33.6310   32.2320   24.2010 H   0  0  0  0  0  0  0  0  0  0  0  0
   35.3610   33.6910   23.5470 H   0  0  0  0  0  0  0  0  0  0  0  0
   35.4980   34.4730   25.1720 H   0  0  0  0  0  0  0  0  0  0  0  0
   33.8580   35.9920   24.8460 H   0  0  0  0  0  0  0  0  0  0  0  0
   31.7380   35.6210   23.5060 H   0  0  0  0  0  0  0  0  0  0  0  0
   32.3270   33.9780   23.0280 H   0  0  0  0  0  0  0  0  0  0  0  0
   31.6520   35.0980   25.8430 H   0  0  0  0  0  0  0  0  0  0  0  0
   30.9070   33.6670   24.9580 H   0  0  0  0  0  0  0  0  0  0  0  0
   32.8610   33.3700   25.8710 N   0  0  0  0  0  0  0  0  0  0  0  0
   32.2810   32.3680   27.1420 S   0  0  0  0  0  0  0  0  0  0  0  0
   31.5170   31.2310   26.5890 O   0  0  0  0  0  0  0  0  0  0  0  0
   31.4320   33.2050   28.0140 O   0  0  0  0  0  0  0  0  0  0  0  0
   33.6940   31.8250   27.9850 C   0  0  0  0  0  0  0  0  0  0  0  0
   34.4710   32.6330   28.0790 H   0  0  0  0  0  0  0  0  0  0  0  0
   33.4510   31.5150   29.0400 H   0  0  0  0  0  0  0  0  0  0  0  0
   34.1780   30.9350   27.5070 H   0  0  0  0  0  0  0  0  0  0  0  0
  1  3  2  0  0  0  0
  1  7  1  0  0  0  0
  1 21  1  0  0  0  0
  2 12  1  0  0  0  0
  2 17  2  0  0  0  0
  2 18  1  0  0  0  0
  3 13  1  0  0  0  0
  3 14  1  0  0  0  0
  4 16  2  0  0  0  0
  4 19  1  0  0  0  0
  4 20  1  0  0  0  0
  5  6  1  0  0  0  0
  5 10  1  0  0  0  0
  5 11  2  0  0  0  0
  6 12  2  0  0  0  0
  6 22  1  0  0  0  0
  7  8  2  0  0  0  0
  7 27  1  0  0  0  0
  8  9  1  0  0  0  0
  8 23  1  0  0  0  0
  9 13  2  0  0  0  0
  9 24  1  0  0  0  0
 10 18  1  0  0  0  0
 10 19  2  0  0  0  0
 11 16  1  0  0  0  0
 11 25  1  0  0  0  0
 12 15  1  0  0  0  0
 13 15  1  0  0  0  0
 18 45  1  0  0  0  0
 20 26  1  0  0  0  0
 20 30  1  0  0  0  0
 28 29  1  0  0  0  0
 28 33  1  0  0  0  0
 28 34  1  0  0  0  0
 28 35  1  0  0  0  0
 29 30  1  0  0  0  0
 29 36  1  0  0  0  0
 29 37  1  0  0  0  0
 30 31  1  0  0  0  0
 30 38  1  0  0  0  0
 31 32  1  0  0  0  0
 31 39  1  0  0  0  0
 31 40  1  0  0  0  0
 32 33  1  0  0  0  0
 32 41  1  0  0  0  0
 32 42  1  0  0  0  0
 43 44  1  0  0  0  0
 43 48  1  0  0  0  0
 43 49  1  0  0  0  0
 43 57  1  0  0  0  0
 44 45  1  0  0  0  0
 44 50  1  0  0  0  0
 44 51  1  0  0  0  0
 45 46  1  0  0  0  0
 45 52  1  0  0  0  0
 46 47  1  0  0  0  0
 46 53  1  0  0  0  0
 46 54  1  0  0  0  0
 47 55  1  0  0  0  0
 47 56  1  0  0  0  0
 47 57  1  0  0  0  0
 57 58  1  0  0  0  0
 58 59  2  0  0  0  0
 58 60  2  0  0  0  0
 58 61  1  0  0  0  0
 61 62  1  0  0  0  0
 61 63  1  0  0  0  0
 61 64  1  0  0  0  0
M  END
$$$$
