ejm_46
                    3D
 Schrodinger Suite 2022-3.
 36 38  0  0  1  0  0  0  0  0999 V2000
   -3.1520   22.5670  -29.6220 C   0  0  0  0  0  0  0  0  0  0  0  0
   -3.6160   21.4910  -28.8480 C   0  0  0  0  0  0  0  0  0  0  0  0
   -2.8030   20.8640  -27.9040 C   0  0  0  0  0  0  0  0  0  0  0  0
   -5.1890   25.1800  -31.5110 C   0  0  0  0  0  0  0  0  0  0  0  0
   -4.0260   23.0760  -30.7310 C   0  0  0  0  0  0  0  0  0  0  0  0
   -5.8590   24.6110  -32.6060 C   0  0  0  0  0  0  0  0  0  0  0  0
   -6.7230   25.4250  -33.3530 C   0  0  0  0  0  0  0  0  0  0  0  0
   -1.8600   23.0420  -29.3620 C   0  0  0  0  0  0  0  0  0  0  0  0
   -1.5030   21.3350  -27.6960 C   0  0  0  0  0  0  0  0  0  0  0  0
   -1.0310   22.4360  -28.4140 C   0  0  0  0  0  0  0  0  0  0  0  0
   -5.2250   20.9430  -29.0720 Cl  0  0  0  0  0  0  0  0  0  0  0  0
   -4.4440   22.3470  -31.6050 O   0  0  0  0  0  0  0  0  0  0  0  0
   -4.3310   24.4490  -30.6420 N   0  0  0  0  0  0  0  0  0  0  0  0
   -6.9330   26.7380  -33.0860 N   0  0  0  0  0  0  0  0  0  0  0  0
   -6.2550   27.2860  -32.0140 C   0  0  0  0  0  0  0  0  0  0  0  0
   -5.3750   26.5450  -31.2130 C   0  0  0  0  0  0  0  0  0  0  0  0
   -6.5420   28.6600  -31.7800 N   0  0  0  0  0  0  0  0  0  0  0  0
   -5.7960   29.5350  -30.9500 C   0  0  0  0  0  0  0  0  0  0  0  0
   -4.8500   29.1280  -30.2980 O   0  0  0  0  0  0  0  0  0  0  0  0
   -6.2750   30.9510  -30.9650 C   0  0  0  0  0  0  0  0  0  0  0  0
   -6.0110   31.8470  -29.7550 C   0  0  0  0  0  0  0  0  0  0  0  0
   -5.2340   32.0680  -31.0280 C   0  0  0  0  0  0  0  0  0  0  0  0
   -1.2540   24.4110  -30.1990 Cl  0  0  0  0  0  0  0  0  0  0  0  0
   -3.1600   20.0090  -27.3240 H   0  0  0  0  0  0  0  0  0  0  0  0
   -5.7410   23.5570  -32.8750 H   0  0  0  0  0  0  0  0  0  0  0  0
   -7.2820   25.0090  -34.2080 H   0  0  0  0  0  0  0  0  0  0  0  0
   -0.8530   20.8430  -26.9630 H   0  0  0  0  0  0  0  0  0  0  0  0
   -0.0240   22.8150  -28.2200 H   0  0  0  0  0  0  0  0  0  0  0  0
   -3.9140   24.9850  -29.8580 H   0  0  0  0  0  0  0  0  0  0  0  0
   -4.8450   27.0160  -30.3780 H   0  0  0  0  0  0  0  0  0  0  0  0
   -7.4330   29.0150  -32.1960 H   0  0  0  0  0  0  0  0  0  0  0  0
   -7.2190   31.1260  -31.5080 H   0  0  0  0  0  0  0  0  0  0  0  0
   -5.4950   31.4400  -28.8770 H   0  0  0  0  0  0  0  0  0  0  0  0
   -6.7970   32.5690  -29.4880 H   0  0  0  0  0  0  0  0  0  0  0  0
   -5.4770   32.9470  -31.6420 H   0  0  0  0  0  0  0  0  0  0  0  0
   -4.1680   31.8080  -31.0590 H   0  0  0  0  0  0  0  0  0  0  0  0
  1  2  2  0  0  0  0
  1  5  1  0  0  0  0
  1  8  1  0  0  0  0
  2  3  1  0  0  0  0
  2 11  1  0  0  0  0
  3  9  2  0  0  0  0
  3 24  1  0  0  0  0
  4  6  1  0  0  0  0
  4 13  1  0  0  0  0
  4 16  2  0  0  0  0
  5 12  2  0  0  0  0
  5 13  1  0  0  0  0
  6  7  2  0  0  0  0
  6 25  1  0  0  0  0
  7 14  1  0  0  0  0
  7 26  1  0  0  0  0
  8 10  2  0  0  0  0
  8 23  1  0  0  0  0
  9 10  1  0  0  0  0
  9 27  1  0  0  0  0
 10 28  1  0  0  0  0
 13 29  1  0  0  0  0
 14 15  2  0  0  0  0
 15 16  1  0  0  0  0
 15 17  1  0  0  0  0
 16 30  1  0  0  0  0
 17 18  1  0  0  0  0
 17 31  1  0  0  0  0
 18 19  2  0  0  0  0
 18 20  1  0  0  0  0
 20 21  1  0  0  0  0
 20 22  1  0  0  0  0
 20 32  1  0  0  0  0
 21 22  1  0  0  0  0
 21 33  1  0  0  0  0
 21 34  1  0  0  0  0
 22 35  1  0  0  0  0
 22 36  1  0  0  0  0
M  END
$$$$
