18639-1
 OpenBabel02232411163D
Structure written by MMmdl.
 48 49  0  0  0  0  0  0  0  0999 V2000
   23.2120   10.7850   29.0620 C   0  0  0  0  0  0  0  0  0  0  0  0
   23.4890   11.0340   30.5300 C   0  0  0  0  0  0  0  0  0  0  0  0
   22.2240   11.1490   31.2870 O   0  0  0  0  0  0  0  0  0  0  0  0
   21.5620   10.0220   31.6340 C   0  0  0  0  0  0  0  0  0  0  0  0
   22.0290    8.8230   31.2170 N   0  0  0  0  0  0  0  0  0  0  0  0
   21.2820    7.6990   31.5320 C   0  0  0  0  0  0  0  0  0  0  0  0
   20.1150    7.7570   32.2840 C   0  0  0  0  0  0  0  0  0  0  0  0
   19.6460    9.0180   32.7420 C   0  0  0  0  0  0  0  0  0  0  0  0
   18.4910    9.0790   33.4790 N   0  0  0  0  0  0  0  0  0  0  0  0
   20.3780   10.2030   32.4090 C   0  0  0  0  0  0  0  0  0  0  0  0
   19.9840   11.5100   32.7670 C   0  0  0  0  0  0  0  0  0  0  0  0
   19.7110   12.6080   33.0220 N   0  0  0  0  0  0  0  0  0  0  0  0
   21.8590    6.5300   30.9830 N   0  0  0  0  0  0  0  0  0  0  0  0
   21.2550    5.2610   30.8810 C   0  0  0  0  0  0  0  0  0  0  0  0
   20.1580    5.0150   31.3350 O   0  0  0  0  0  0  0  0  0  0  0  0
   22.0800    4.2620   30.0770 C   0  0  0  0  0  0  0  0  0  0  0  0
   23.4500    3.9970   30.6280 C   0  0  0  0  0  0  0  0  0  0  0  0
   24.5430    4.8610   30.3030 C   0  0  0  0  0  0  0  0  0  0  0  0
   24.1800    5.9060   29.4620 O   0  0  0  0  0  0  0  0  0  0  0  0
   25.1270    6.9980   29.2990 C   0  0  0  0  0  0  0  0  0  0  0  0
   25.8250    4.6250   30.7730 C   0  0  0  0  0  0  0  0  0  0  0  0
   26.0620    3.5120   31.6080 C   0  0  0  0  0  0  0  0  0  0  0  0
   27.4180    3.2620   32.1060 N   0  3  0  0  0  0  0  0  0  0  0  0
   27.5560    2.4790   33.0330 O   0  5  0  0  0  0  0  0  0  0  0  0
   28.3550    3.8400   31.5690 O   0  0  0  0  0  0  0  0  0  0  0  0
   24.9940    2.6450   31.9360 C   0  0  0  0  0  0  0  0  0  0  0  0
   23.6970    2.8940   31.4300 C   0  0  0  0  0  0  0  0  0  0  0  0
   25.3480    1.6100   32.7480 O   0  0  0  0  0  0  0  0  0  0  0  0
   24.3540    0.5720   32.9960 C   0  0  0  0  0  0  0  0  0  0  0  0
   24.1720   10.8390   28.4930 H   0  0  0  0  0  0  0  0  0  0  0  0
   22.5190   11.5500   28.6450 H   0  0  0  0  0  0  0  0  0  0  0  0
   22.7680    9.7750   28.9010 H   0  0  0  0  0  0  0  0  0  0  0  0
   23.9010   12.0550   30.7150 H   0  0  0  0  0  0  0  0  0  0  0  0
   24.1220   10.2360   30.9800 H   0  0  0  0  0  0  0  0  0  0  0  0
   19.5440    6.8540   32.5110 H   0  0  0  0  0  0  0  0  0  0  0  0
   17.9850    8.2140   33.7480 H   0  0  0  0  0  0  0  0  0  0  0  0
   18.1020    9.9710   33.7860 H   0  0  0  0  0  0  0  0  0  0  0  0
   22.7820    6.6770   30.5010 H   0  0  0  0  0  0  0  0  0  0  0  0
   21.5090    3.2970   30.0200 H   0  0  0  0  0  0  0  0  0  0  0  0
   22.1840    4.6760   29.0340 H   0  0  0  0  0  0  0  0  0  0  0  0
   25.4460    7.3920   30.2880 H   0  0  0  0  0  0  0  0  0  0  0  0
   25.9830    6.6480   28.6830 H   0  0  0  0  0  0  0  0  0  0  0  0
   24.5060    7.7440   28.7520 H   0  0  0  0  0  0  0  0  0  0  0  0
   26.6620    5.2780   30.4990 H   0  0  0  0  0  0  0  0  0  0  0  0
   22.8840    2.2050   31.6700 H   0  0  0  0  0  0  0  0  0  0  0  0
   24.9440   -0.1590   33.6000 H   0  0  0  0  0  0  0  0  0  0  0  0
   23.5080    0.9860   33.5860 H   0  0  0  0  0  0  0  0  0  0  0  0
   24.0250    0.1210   32.0350 H   0  0  0  0  0  0  0  0  0  0  0  0
  1  2  1  0  0  0  0
  1 30  1  0  0  0  0
  1 31  1  0  0  0  0
  1 32  1  0  0  0  0
  2  3  1  0  0  0  0
  2 33  1  0  0  0  0
  2 34  1  0  0  0  0
  3  4  1  0  0  0  0
  4 10  2  0  0  0  0
  4  5  1  0  0  0  0
  5  6  2  0  0  0  0
  6  7  1  0  0  0  0
  6 13  1  0  0  0  0
  7  8  2  0  0  0  0
  7 35  1  0  0  0  0
  8  9  1  0  0  0  0
  8 10  1  0  0  0  0
  9 36  1  0  0  0  0
  9 37  1  0  0  0  0
 10 11  1  0  0  0  0
 11 12  3  0  0  0  0
 13 14  1  0  0  0  0
 13 38  1  0  0  0  0
 14 15  2  0  0  0  0
 14 16  1  0  0  0  0
 16 17  1  0  0  0  0
 16 39  1  0  0  0  0
 16 40  1  0  0  0  0
 17 27  2  0  0  0  0
 17 18  1  0  0  0  0
 18 19  1  0  0  0  0
 18 21  2  0  0  0  0
 19 20  1  0  0  0  0
 20 41  1  0  0  0  0
 20 42  1  0  0  0  0
 20 43  1  0  0  0  0
 21 22  1  0  0  0  0
 21 44  1  0  0  0  0
 22 23  1  0  0  0  0
 22 26  2  0  0  0  0
 23 24  1  0  0  0  0
 23 25  2  0  0  0  0
 26 27  1  0  0  0  0
 26 28  1  0  0  0  0
 27 45  1  0  0  0  0
 28 29  1  0  0  0  0
 29 46  1  0  0  0  0
 29 47  1  0  0  0  0
 29 48  1  0  0  0  0
M  CHG  2  23   1  24  -1
M  END
$$$$
