23330
                    3D
 Schrodinger Suite 2022-3.
 57 59  0  0  1  0  0  0  0  0999 V2000
   43.7540   13.9760   16.5540 S   0  0  0  0  0  0  0  0  0  0  0  0
   43.5070   15.3390   15.4810 C   0  0  0  0  0  0  0  0  0  0  0  0
   42.5320   15.0200   14.5710 C   0  0  0  0  0  0  0  0  0  0  0  0
   42.0140   13.6780   14.7330 C   0  0  0  0  0  0  0  0  0  0  0  0
   42.5430   12.9830   15.7890 C   0  0  0  0  0  0  0  0  0  0  0  0
   44.3320   16.6060   15.6980 C   0  0  0  0  0  0  0  0  0  0  0  0
   45.1460   16.5450   16.6480 O   0  0  0  0  0  0  0  0  0  0  0  0
   44.1700   17.5800   14.9600 O   0  5  0  0  0  0  0  0  0  0  0  0
   42.2140   11.6460   16.2440 C   0  0  0  0  0  0  0  0  0  0  0  0
   40.8940   11.1970   16.1180 C   0  0  0  0  0  0  0  0  0  0  0  0
   40.5620    9.8410   16.3330 C   0  0  0  0  0  0  0  0  0  0  0  0
   41.5350    8.9650   16.8350 C   0  0  0  0  0  0  0  0  0  0  0  0
   42.8290    9.4500   17.0700 C   0  0  0  0  0  0  0  0  0  0  0  0
   43.1860   10.7590   16.7580 C   0  0  0  0  0  0  0  0  0  0  0  0
   40.7600   12.9290   13.5050 Br  0  0  0  0  0  0  0  0  0  0  0  0
   42.1770   15.8470   13.5530 O   0  0  0  0  0  0  0  0  0  0  0  0
   40.7690   16.2500   13.5640 C   0  0  0  0  0  0  0  0  0  0  0  0
   40.8310   17.6420   12.8610 C   0  0  0  0  0  0  0  0  0  0  0  0
   39.7110   18.1210   12.5650 O   0  5  0  0  0  0  0  0  0  0  0  0
   41.9380   18.1410   12.6420 O   0  0  0  0  0  0  0  0  0  0  0  0
   39.2020    9.4700   16.0840 N   0  0  0  0  0  0  0  0  0  0  0  0
   38.8940    8.0390   15.7520 C   0  0  0  0  0  0  0  0  0  0  0  0
   38.3310    7.3510   17.0130 C   0  0  0  0  0  0  0  0  0  0  0  0
   37.9470    5.8720   16.7500 C   0  0  0  0  0  0  0  0  0  0  0  0
   37.0310    5.7500   15.5030 C   0  0  0  0  0  0  0  0  0  0  0  0
   37.4490    6.5440   14.2360 C   0  0  0  0  0  0  0  0  0  0  0  0
   37.8670    7.9910   14.5990 C   0  0  0  0  0  0  0  0  0  0  0  0
   40.0900   11.8860   15.8440 H   0  0  0  0  0  0  0  0  0  0  0  0
   41.3130    7.9210   17.0430 H   0  0  0  0  0  0  0  0  0  0  0  0
   43.5700    8.7660   17.4910 H   0  0  0  0  0  0  0  0  0  0  0  0
   44.2190   11.0770   16.9080 H   0  0  0  0  0  0  0  0  0  0  0  0
   40.3690   16.3190   14.5960 H   0  0  0  0  0  0  0  0  0  0  0  0
   40.1910   15.5180   12.9670 H   0  0  0  0  0  0  0  0  0  0  0  0
   38.7360   10.1080   15.4090 H   0  0  0  0  0  0  0  0  0  0  0  0
   39.8230    7.4990   15.4250 H   0  0  0  0  0  0  0  0  0  0  0  0
   37.4270    7.9040   17.3600 H   0  0  0  0  0  0  0  0  0  0  0  0
   39.0920    7.3880   17.8260 H   0  0  0  0  0  0  0  0  0  0  0  0
   38.3040    8.4780   13.6960 H   0  0  0  0  0  0  0  0  0  0  0  0
   36.9530    8.5570   14.8950 H   0  0  0  0  0  0  0  0  0  0  0  0
   36.2040    6.6270   13.3040 C   0  0  0  0  0  0  0  0  0  0  0  0
   35.9520    5.6150   12.9200 H   0  0  0  0  0  0  0  0  0  0  0  0
   35.3260    7.0180   13.8600 H   0  0  0  0  0  0  0  0  0  0  0  0
   36.4150    7.3000   12.4520 H   0  0  0  0  0  0  0  0  0  0  0  0
   38.5760    5.8310   13.4580 C   0  0  0  0  0  0  0  0  0  0  0  0
   38.7140    6.2950   12.4610 H   0  0  0  0  0  0  0  0  0  0  0  0
   39.5410    5.8930   14.0050 H   0  0  0  0  0  0  0  0  0  0  0  0
   38.3280    4.7570   13.3200 H   0  0  0  0  0  0  0  0  0  0  0  0
   37.1400    5.3550   17.9770 C   0  0  0  0  0  0  0  0  0  0  0  0
   36.8760    4.2840   17.8370 H   0  0  0  0  0  0  0  0  0  0  0  0
   37.7440    5.4500   18.9050 H   0  0  0  0  0  0  0  0  0  0  0  0
   36.2010    5.9330   18.1070 H   0  0  0  0  0  0  0  0  0  0  0  0
   39.2100    4.9920   16.6190 C   0  0  0  0  0  0  0  0  0  0  0  0
   38.9490    3.9930   16.2170 H   0  0  0  0  0  0  0  0  0  0  0  0
   39.9550    5.4600   15.9410 H   0  0  0  0  0  0  0  0  0  0  0  0
   39.6910    4.8630   17.6120 H   0  0  0  0  0  0  0  0  0  0  0  0
   36.0170    6.1080   15.8010 H   0  0  0  0  0  0  0  0  0  0  0  0
   36.9390    4.6750   15.2310 H   0  0  0  0  0  0  0  0  0  0  0  0
  1  2  1  0  0  0  0
  1  5  1  0  0  0  0
  2  3  2  0  0  0  0
  2  6  1  0  0  0  0
  3  4  1  0  0  0  0
  3 16  1  0  0  0  0
  4  5  2  0  0  0  0
  4 15  1  0  0  0  0
  5  9  1  0  0  0  0
  6  7  2  0  0  0  0
  6  8  1  0  0  0  0
  9 10  1  0  0  0  0
  9 14  2  0  0  0  0
 10 11  2  0  0  0  0
 10 28  1  0  0  0  0
 11 12  1  0  0  0  0
 11 21  1  0  0  0  0
 12 13  2  0  0  0  0
 12 29  1  0  0  0  0
 13 14  1  0  0  0  0
 13 30  1  0  0  0  0
 14 31  1  0  0  0  0
 16 17  1  0  0  0  0
 17 18  1  0  0  0  0
 17 32  1  0  0  0  0
 17 33  1  0  0  0  0
 18 19  1  0  0  0  0
 18 20  2  0  0  0  0
 21 22  1  0  0  0  0
 21 34  1  0  0  0  0
 22 23  1  0  0  0  0
 22 27  1  0  0  0  0
 22 35  1  0  0  0  0
 23 24  1  0  0  0  0
 23 36  1  0  0  0  0
 23 37  1  0  0  0  0
 24 25  1  0  0  0  0
 24 48  1  0  0  0  0
 24 52  1  0  0  0  0
 25 26  1  0  0  0  0
 25 56  1  0  0  0  0
 25 57  1  0  0  0  0
 26 27  1  0  0  0  0
 26 40  1  0  0  0  0
 26 44  1  0  0  0  0
 27 38  1  0  0  0  0
 27 39  1  0  0  0  0
 40 41  1  0  0  0  0
 40 42  1  0  0  0  0
 40 43  1  0  0  0  0
 44 45  1  0  0  0  0
 44 46  1  0  0  0  0
 44 47  1  0  0  0  0
 48 49  1  0  0  0  0
 48 50  1  0  0  0  0
 48 51  1  0  0  0  0
 52 53  1  0  0  0  0
 52 54  1  0  0  0  0
 52 55  1  0  0  0  0
M  CHG  2   8  -1  19  -1
M  END
$$$$
