p38a_2n
 OpenBabel02232411163D
Structure written by MMmdl.
 53 56  0  0  0  0  0  0  0  0999 V2000
   36.3470   36.0140   15.8370 C   0  0  0  0  0  0  0  0  0  0  0  0
   34.5130   35.0520   21.3740 C   0  0  0  0  0  0  0  0  0  0  0  0
   35.6880   35.5480   16.9700 C   0  0  0  0  0  0  0  0  0  0  0  0
   34.0730   39.1790   23.8580 C   0  0  0  0  0  0  0  0  0  0  0  0
   34.7700   37.9130   21.5080 C   0  0  0  0  0  0  0  0  0  0  0  0
   35.2220   37.2210   20.3310 C   0  0  0  0  0  0  0  0  0  0  0  0
   37.6390   36.5210   16.0300 C   0  0  0  0  0  0  0  0  0  0  0  0
   38.2810   36.5390   17.2710 C   0  0  0  0  0  0  0  0  0  0  0  0
   37.5840   36.0980   18.4010 C   0  0  0  0  0  0  0  0  0  0  0  0
   34.2970   37.1790   22.6360 C   0  0  0  0  0  0  0  0  0  0  0  0
   34.7810   39.3280   21.6250 C   0  0  0  0  0  0  0  0  0  0  0  0
   35.1360   35.8720   20.2980 C   0  0  0  0  0  0  0  0  0  0  0  0
   36.2850   35.6030   18.2460 C   0  0  0  0  0  0  0  0  0  0  0  0
   34.4740   35.0220   16.8740 F   0  0  0  0  0  0  0  0  0  0  0  0
   35.5520   35.0130   19.2830 O   0  0  0  0  0  0  0  0  0  0  0  0
   34.4440   39.9720   22.7510 N   0  0  0  0  0  0  0  0  0  0  0  0
   34.3010   33.8610   21.3090 O   0  0  0  0  0  0  0  0  0  0  0  0
   34.1690   35.7800   22.5670 N   0  0  0  0  0  0  0  0  0  0  0  0
   33.9600   37.8050   23.8110 N   0  0  0  0  0  0  0  0  0  0  0  0
   33.8480   39.8520   25.0370 N   0  0  0  0  0  0  0  0  0  0  0  0
   35.8750   36.0110   14.8510 H   0  0  0  0  0  0  0  0  0  0  0  0
   35.6350   37.8170   19.5130 H   0  0  0  0  0  0  0  0  0  0  0  0
   39.3010   36.9220   17.3680 H   0  0  0  0  0  0  0  0  0  0  0  0
   38.0500   36.1660   19.3870 H   0  0  0  0  0  0  0  0  0  0  0  0
   35.0670   39.9460   20.7580 H   0  0  0  0  0  0  0  0  0  0  0  0
   33.8490   40.8920   25.0260 H   0  0  0  0  0  0  0  0  0  0  0  0
   38.2690   37.0430   14.9800 F   0  0  0  0  0  0  0  0  0  0  0  0
   33.6220   37.6320   28.1720 C   0  0  0  0  0  0  0  0  0  0  0  0
   34.2370   38.2070   26.8920 C   0  0  0  0  0  0  0  0  0  0  0  0
   33.2940   39.2690   26.2950 C   0  0  0  0  0  0  0  0  0  0  0  0
   31.8760   38.6910   26.0980 C   0  0  0  0  0  0  0  0  0  0  0  0
   31.3730   38.0880   27.4140 C   0  0  0  0  0  0  0  0  0  0  0  0
   32.2980   37.0980   27.9230 O   0  0  0  0  0  0  0  0  0  0  0  0
   33.5530   38.4050   28.9710 H   0  0  0  0  0  0  0  0  0  0  0  0
   34.1780   36.7300   28.5180 H   0  0  0  0  0  0  0  0  0  0  0  0
   34.3980   37.3820   26.1560 H   0  0  0  0  0  0  0  0  0  0  0  0
   35.2260   38.6700   27.1260 H   0  0  0  0  0  0  0  0  0  0  0  0
   33.2340   40.1460   27.0070 H   0  0  0  0  0  0  0  0  0  0  0  0
   31.1800   39.4950   25.7610 H   0  0  0  0  0  0  0  0  0  0  0  0
   31.9020   37.8920   25.3200 H   0  0  0  0  0  0  0  0  0  0  0  0
   31.2230   38.8710   28.1890 H   0  0  0  0  0  0  0  0  0  0  0  0
   30.4500   37.4840   27.2550 H   0  0  0  0  0  0  0  0  0  0  0  0
   33.5750   35.0320   23.7260 C   0  0  0  0  0  0  0  0  0  0  0  0
   33.8300   33.9440   23.6110 H   0  0  0  0  0  0  0  0  0  0  0  0
   34.0360   35.4270   24.6750 H   0  0  0  0  0  0  0  0  0  0  0  0
   32.0530   35.2140   23.7960 C   0  0  0  0  0  0  0  0  0  0  0  0
   31.7990   36.3010   23.8100 H   0  0  0  0  0  0  0  0  0  0  0  0
   31.5550   34.7610   22.9050 H   0  0  0  0  0  0  0  0  0  0  0  0
   31.4770   34.5550   25.0620 C   0  0  0  0  0  0  0  0  0  0  0  0
   30.4630   34.9720   25.2730 H   0  0  0  0  0  0  0  0  0  0  0  0
   31.4490   33.4450   24.9660 H   0  0  0  0  0  0  0  0  0  0  0  0
   32.3110   34.7550   26.2090 O   0  0  0  0  0  0  0  0  0  0  0  0
   32.3680   35.7300   26.4200 H   0  0  0  0  0  0  0  0  0  0  0  0
  1  3  2  0  0  0  0
  1  7  1  0  0  0  0
  1 21  1  0  0  0  0
  2 12  1  0  0  0  0
  2 17  2  0  0  0  0
  2 18  1  0  0  0  0
  3 13  1  0  0  0  0
  3 14  1  0  0  0  0
  4 16  2  0  0  0  0
  4 19  1  0  0  0  0
  4 20  1  0  0  0  0
  5  6  1  0  0  0  0
  5 10  1  0  0  0  0
  5 11  2  0  0  0  0
  6 12  2  0  0  0  0
  6 22  1  0  0  0  0
  7  8  2  0  0  0  0
  7 27  1  0  0  0  0
  8  9  1  0  0  0  0
  8 23  1  0  0  0  0
  9 13  2  0  0  0  0
  9 24  1  0  0  0  0
 10 18  1  0  0  0  0
 10 19  2  0  0  0  0
 11 16  1  0  0  0  0
 11 25  1  0  0  0  0
 12 15  1  0  0  0  0
 13 15  1  0  0  0  0
 18 43  1  0  0  0  0
 20 26  1  0  0  0  0
 20 30  1  0  0  0  0
 28 29  1  0  0  0  0
 28 33  1  0  0  0  0
 28 34  1  0  0  0  0
 28 35  1  0  0  0  0
 29 30  1  0  0  0  0
 29 36  1  0  0  0  0
 29 37  1  0  0  0  0
 30 31  1  0  0  0  0
 30 38  1  0  0  0  0
 31 32  1  0  0  0  0
 31 39  1  0  0  0  0
 31 40  1  0  0  0  0
 32 33  1  0  0  0  0
 32 41  1  0  0  0  0
 32 42  1  0  0  0  0
 43 44  1  0  0  0  0
 43 45  1  0  0  0  0
 43 46  1  0  0  0  0
 46 47  1  0  0  0  0
 46 48  1  0  0  0  0
 46 49  1  0  0  0  0
 49 50  1  0  0  0  0
 49 51  1  0  0  0  0
 49 52  1  0  0  0  0
 52 53  1  0  0  0  0
M  END
$$$$
