38
 OpenBabel02232411163D
Structure written by MMmdl.
 48 51  0  0  0  0  0  0  0  0999 V2000
    3.9400  -50.5220    6.2760 O   0  0  0  0  0  0  0  0  0  0  0  0
    3.2310  -49.5800    6.6820 C   0  0  0  0  0  0  0  0  0  0  0  0
    3.6230  -48.5390    7.2250 O   0  5  0  0  0  0  0  0  0  0  0  0
    1.7160  -49.7760    6.4820 C   0  0  0  0  0  0  0  0  0  0  0  0
   -0.2460  -50.9530    6.5370 C   0  0  0  0  0  0  0  0  0  0  0  0
   -1.2590  -51.9050    6.7370 C   0  0  0  0  0  0  0  0  0  0  0  0
   -2.5390  -51.5720    6.3200 C   0  0  0  0  0  0  0  0  0  0  0  0
   -2.8090  -50.3280    5.7020 C   0  0  0  0  0  0  0  0  0  0  0  0
   -1.8090  -49.3860    5.4950 C   0  0  0  0  0  0  0  0  0  0  0  0
   -0.5040  -49.6690    5.9280 C   0  0  0  0  0  0  0  0  0  0  0  0
    0.7490  -48.9460    5.9230 C   0  0  0  0  0  0  0  0  0  0  0  0
    0.9240  -47.5510    5.4400 C   0  0  0  0  0  0  0  0  0  0  0  0
    0.6530  -46.5100    6.5430 C   0  0  0  0  0  0  0  0  0  0  0  0
   -0.8180  -46.1200    6.6810 C   0  0  0  0  0  0  0  0  0  0  0  0
   -1.3640  -47.0080    7.7220 O   0  0  0  0  0  0  0  0  0  0  0  0
   -2.6510  -46.7670    8.1140 C   0  0  0  0  0  0  0  0  0  0  0  0
   -3.4910  -45.8010    7.5440 C   0  0  0  0  0  0  0  0  0  0  0  0
   -4.7870  -45.6060    8.0560 C   0  0  0  0  0  0  0  0  0  0  0  0
   -5.1840  -46.3090    9.2010 C   0  0  0  0  0  0  0  0  0  0  0  0
   -4.3630  -47.3270    9.7120 C   0  0  0  0  0  0  0  0  0  0  0  0
   -3.1200  -47.5960    9.1610 C   0  0  0  0  0  0  0  0  0  0  0  0
   -1.0550  -52.8680    7.2040 H   0  0  0  0  0  0  0  0  0  0  0  0
   -3.3610  -52.2750    6.4650 H   0  0  0  0  0  0  0  0  0  0  0  0
   -3.8300  -50.1160    5.3830 H   0  0  0  0  0  0  0  0  0  0  0  0
   -2.0480  -48.4470    4.9990 H   0  0  0  0  0  0  0  0  0  0  0  0
    0.2250  -47.3600    4.5880 H   0  0  0  0  0  0  0  0  0  0  0  0
    1.9690  -47.4000    5.0670 H   0  0  0  0  0  0  0  0  0  0  0  0
    1.2160  -45.5780    6.3050 H   0  0  0  0  0  0  0  0  0  0  0  0
    1.0040  -46.9060    7.5290 H   0  0  0  0  0  0  0  0  0  0  0  0
   -1.4080  -46.3020    5.7580 H   0  0  0  0  0  0  0  0  0  0  0  0
   -0.9260  -45.0770    7.0530 H   0  0  0  0  0  0  0  0  0  0  0  0
   -3.1700  -45.2380    6.6750 H   0  0  0  0  0  0  0  0  0  0  0  0
   -2.5340  -48.4410    9.5000 H   0  0  0  0  0  0  0  0  0  0  0  0
    1.1190  -50.9920    6.8650 N   0  0  0  0  0  0  0  0  0  0  0  0
    1.5790  -51.8070    7.2560 H   0  0  0  0  0  0  0  0  0  0  0  0
   -4.7360  -47.9360   10.5390 H   0  0  0  0  0  0  0  0  0  0  0  0
   -6.1370  -46.1140    9.6860 H   0  0  0  0  0  0  0  0  0  0  0  0
   -7.5850  -43.8550    5.3400 C   0  0  0  0  0  0  0  0  0  0  0  0
   -6.2230  -43.5800    5.2050 C   0  0  0  0  0  0  0  0  0  0  0  0
   -5.3220  -44.0240    6.1720 C   0  0  0  0  0  0  0  0  0  0  0  0
   -5.7520  -44.8070    7.2610 C   0  0  0  0  0  0  0  0  0  0  0  0
   -7.1370  -44.9730    7.4450 C   0  0  0  0  0  0  0  0  0  0  0  0
   -8.0400  -44.5030    6.4910 C   0  0  0  0  0  0  0  0  0  0  0  0
   -8.2840  -43.5810    4.5580 H   0  0  0  0  0  0  0  0  0  0  0  0
   -5.8490  -43.0440    4.3360 H   0  0  0  0  0  0  0  0  0  0  0  0
   -4.2770  -43.7520    6.0490 H   0  0  0  0  0  0  0  0  0  0  0  0
   -7.5320  -45.5060    8.3100 H   0  0  0  0  0  0  0  0  0  0  0  0
   -9.1070  -44.6770    6.6320 H   0  0  0  0  0  0  0  0  0  0  0  0
  1  2  2  0  0  0  0
  2  3  1  0  0  0  0
  2  4  1  0  0  0  0
  4 11  2  0  0  0  0
  4 34  1  0  0  0  0
  5  6  2  0  0  0  0
  5 10  1  0  0  0  0
  5 34  1  0  0  0  0
  6  7  1  0  0  0  0
  6 22  1  0  0  0  0
  7  8  2  0  0  0  0
  7 23  1  0  0  0  0
  8  9  1  0  0  0  0
  8 24  1  0  0  0  0
  9 10  2  0  0  0  0
  9 25  1  0  0  0  0
 10 11  1  0  0  0  0
 11 12  1  0  0  0  0
 12 26  1  0  0  0  0
 12 27  1  0  0  0  0
 12 13  1  0  0  0  0
 13 14  1  0  0  0  0
 13 28  1  0  0  0  0
 13 29  1  0  0  0  0
 14 15  1  0  0  0  0
 14 30  1  0  0  0  0
 14 31  1  0  0  0  0
 15 16  1  0  0  0  0
 16 17  2  0  0  0  0
 16 21  1  0  0  0  0
 17 18  1  0  0  0  0
 17 32  1  0  0  0  0
 18 19  2  0  0  0  0
 18 41  1  0  0  0  0
 19 20  1  0  0  0  0
 19 37  1  0  0  0  0
 20 21  2  0  0  0  0
 20 36  1  0  0  0  0
 21 33  1  0  0  0  0
 34 35  1  0  0  0  0
 38 39  2  0  0  0  0
 38 43  1  0  0  0  0
 38 44  1  0  0  0  0
 39 40  1  0  0  0  0
 39 45  1  0  0  0  0
 40 41  2  0  0  0  0
 40 46  1  0  0  0  0
 41 42  1  0  0  0  0
 42 43  2  0  0  0  0
 42 47  1  0  0  0  0
 43 48  1  0  0  0  0
M  CHG  1   3  -1
M  END
$$$$
