46
 OpenBabel02232411163D
Structure written by MMmdl.
 45 48  0  0  0  0  0  0  0  0999 V2000
    3.7160  -48.6980    7.3360 O   0  0  0  0  0  0  0  0  0  0  0  0
    3.2960  -49.7520    6.8420 C   0  0  0  0  0  0  0  0  0  0  0  0
    3.9780  -50.7430    6.5140 O   0  5  0  0  0  0  0  0  0  0  0  0
    1.7820  -49.8990    6.5990 C   0  0  0  0  0  0  0  0  0  0  0  0
   -0.2170  -51.0110    6.5990 C   0  0  0  0  0  0  0  0  0  0  0  0
   -1.2640  -51.9310    6.7750 C   0  0  0  0  0  0  0  0  0  0  0  0
   -2.5190  -51.5680    6.3100 C   0  0  0  0  0  0  0  0  0  0  0  0
   -2.7280  -50.3260    5.6660 C   0  0  0  0  0  0  0  0  0  0  0  0
   -1.6950  -49.4170    5.4800 C   0  0  0  0  0  0  0  0  0  0  0  0
   -0.4140  -49.7270    5.9680 C   0  0  0  0  0  0  0  0  0  0  0  0
    0.8600  -49.0420    6.0040 C   0  0  0  0  0  0  0  0  0  0  0  0
    1.1000  -47.6520    5.5350 C   0  0  0  0  0  0  0  0  0  0  0  0
    0.6600  -46.6020    6.5760 C   0  0  0  0  0  0  0  0  0  0  0  0
   -0.7590  -46.0870    6.3500 C   0  0  0  0  0  0  0  0  0  0  0  0
   -1.5220  -46.5230    7.5320 O   0  0  0  0  0  0  0  0  0  0  0  0
   -2.8160  -46.0810    7.6080 C   0  0  0  0  0  0  0  0  0  0  0  0
   -4.8220  -46.0560    8.9700 C   0  0  0  0  0  0  0  0  0  0  0  0
   -3.5030  -46.4720    8.7770 C   0  0  0  0  0  0  0  0  0  0  0  0
   -1.1050  -52.8950    7.2580 H   0  0  0  0  0  0  0  0  0  0  0  0
   -3.3660  -52.2450    6.4340 H   0  0  0  0  0  0  0  0  0  0  0  0
   -3.7310  -50.0890    5.3050 H   0  0  0  0  0  0  0  0  0  0  0  0
   -1.8910  -48.4860    4.9510 H   0  0  0  0  0  0  0  0  0  0  0  0
    0.5400  -47.4710    4.5850 H   0  0  0  0  0  0  0  0  0  0  0  0
    2.1870  -47.4980    5.3190 H   0  0  0  0  0  0  0  0  0  0  0  0
    1.3510  -45.7310    6.5330 H   0  0  0  0  0  0  0  0  0  0  0  0
    0.7010  -47.0380    7.6050 H   0  0  0  0  0  0  0  0  0  0  0  0
   -0.7950  -44.9780    6.3310 H   0  0  0  0  0  0  0  0  0  0  0  0
   -1.2580  -46.5410    5.4690 H   0  0  0  0  0  0  0  0  0  0  0  0
   -3.0140  -47.0910    9.5250 H   0  0  0  0  0  0  0  0  0  0  0  0
   -3.4380  -45.2970    6.6140 C   0  0  0  0  0  0  0  0  0  0  0  0
   -5.3750  -46.3590    9.8600 H   0  0  0  0  0  0  0  0  0  0  0  0
   -2.9630  -45.0390    5.6760 H   0  0  0  0  0  0  0  0  0  0  0  0
    1.1340  -51.0910    6.9720 N   0  0  0  0  0  0  0  0  0  0  0  0
   -7.0100  -44.0900    6.5810 C   0  0  0  0  0  0  0  0  0  0  0  0
   -5.6040  -44.0500    5.9250 C   0  0  0  0  0  0  0  0  0  0  0  0
   -4.7410  -44.8750    6.8420 C   0  0  0  0  0  0  0  0  0  0  0  0
   -5.4350  -45.2520    8.0110 C   0  0  0  0  0  0  0  0  0  0  0  0
   -6.8310  -44.6950    8.0020 C   0  0  0  0  0  0  0  0  0  0  0  0
   -6.9210  -43.9040    8.7730 H   0  0  0  0  0  0  0  0  0  0  0  0
   -7.5940  -45.4800    8.1920 H   0  0  0  0  0  0  0  0  0  0  0  0
   -7.4570  -43.0780    6.6360 H   0  0  0  0  0  0  0  0  0  0  0  0
   -7.6820  -44.7410    5.9810 H   0  0  0  0  0  0  0  0  0  0  0  0
   -5.6380  -44.4780    4.8990 H   0  0  0  0  0  0  0  0  0  0  0  0
   -5.2210  -43.0080    5.8610 H   0  0  0  0  0  0  0  0  0  0  0  0
    1.5470  -51.9150    7.3960 H   0  0  0  0  0  0  0  0  0  0  0  0
  1  2  2  0  0  0  0
  2  3  1  0  0  0  0
  2  4  1  0  0  0  0
  4 11  2  0  0  0  0
  4 33  1  0  0  0  0
  5  6  2  0  0  0  0
  5 10  1  0  0  0  0
  5 33  1  0  0  0  0
  6  7  1  0  0  0  0
  6 19  1  0  0  0  0
  7  8  2  0  0  0  0
  7 20  1  0  0  0  0
  8  9  1  0  0  0  0
  8 21  1  0  0  0  0
  9 10  2  0  0  0  0
  9 22  1  0  0  0  0
 10 11  1  0  0  0  0
 11 12  1  0  0  0  0
 12 23  1  0  0  0  0
 12 24  1  0  0  0  0
 12 13  1  0  0  0  0
 13 14  1  0  0  0  0
 13 25  1  0  0  0  0
 13 26  1  0  0  0  0
 14 15  1  0  0  0  0
 14 27  1  0  0  0  0
 14 28  1  0  0  0  0
 15 16  1  0  0  0  0
 16 18  2  0  0  0  0
 16 30  1  0  0  0  0
 17 18  1  0  0  0  0
 17 31  1  0  0  0  0
 17 37  2  0  0  0  0
 18 29  1  0  0  0  0
 30 32  1  0  0  0  0
 30 36  2  0  0  0  0
 33 45  1  0  0  0  0
 34 35  1  0  0  0  0
 34 38  1  0  0  0  0
 34 41  1  0  0  0  0
 34 42  1  0  0  0  0
 35 36  1  0  0  0  0
 35 43  1  0  0  0  0
 35 44  1  0  0  0  0
 36 37  1  0  0  0  0
 37 38  1  0  0  0  0
 38 39  1  0  0  0  0
 38 40  1  0  0  0  0
M  CHG  1   3  -1
M  END
$$$$
