18660-1
 OpenBabel02232411163D
Structure written by MMmdl.
 52 53  0  0  0  0  0  0  0  0999 V2000
   25.4610   11.0660   28.0580 C   0  0  0  0  0  0  0  0  0  0  0  0
   25.0410   12.5940   28.7680 S   0  0  0  0  0  0  0  0  0  0  0  0
   24.8570   13.6270   27.7320 O   0  0  0  0  0  0  0  0  0  0  0  0
   26.0530   13.0090   29.7510 O   0  0  0  0  0  0  0  0  0  0  0  0
   23.5000   12.3110   29.5920 C   0  0  0  0  0  0  0  0  0  0  0  0
   23.4300   11.0100   30.3730 C   0  0  0  0  0  0  0  0  0  0  0  0
   22.2310   11.1810   31.2350 O   0  0  0  0  0  0  0  0  0  0  0  0
   21.5570   10.0630   31.6050 C   0  0  0  0  0  0  0  0  0  0  0  0
   22.0100    8.8650   31.1770 N   0  0  0  0  0  0  0  0  0  0  0  0
   21.2560    7.7410   31.4880 C   0  0  0  0  0  0  0  0  0  0  0  0
   20.1030    7.8080   32.2630 C   0  0  0  0  0  0  0  0  0  0  0  0
   19.6530    9.0700   32.7350 C   0  0  0  0  0  0  0  0  0  0  0  0
   18.5090    9.1390   33.4870 N   0  0  0  0  0  0  0  0  0  0  0  0
   20.3890   10.2540   32.3960 C   0  0  0  0  0  0  0  0  0  0  0  0
   20.0000   11.5610   32.7590 C   0  0  0  0  0  0  0  0  0  0  0  0
   19.7210   12.6560   33.0200 N   0  0  0  0  0  0  0  0  0  0  0  0
   21.8020    6.5800   30.9060 N   0  0  0  0  0  0  0  0  0  0  0  0
   21.1860    5.3100   30.8040 C   0  0  0  0  0  0  0  0  0  0  0  0
   20.1120    5.0640   31.3100 O   0  0  0  0  0  0  0  0  0  0  0  0
   21.9710    4.3320   29.9420 C   0  0  0  0  0  0  0  0  0  0  0  0
   23.3150    3.9950   30.5190 C   0  0  0  0  0  0  0  0  0  0  0  0
   24.4370    4.8160   30.2580 C   0  0  0  0  0  0  0  0  0  0  0  0
   24.1460    5.8890   29.4170 O   0  0  0  0  0  0  0  0  0  0  0  0
   25.1430    6.9380   29.2980 C   0  0  0  0  0  0  0  0  0  0  0  0
   25.7000    4.5330   30.7900 C   0  0  0  0  0  0  0  0  0  0  0  0
   25.8650    3.4110   31.5960 C   0  0  0  0  0  0  0  0  0  0  0  0
   24.7570    2.5780   31.8470 C   0  0  0  0  0  0  0  0  0  0  0  0
   23.4910    2.8570   31.3120 C   0  0  0  0  0  0  0  0  0  0  0  0
   25.0650    1.5130   32.6680 O   0  0  0  0  0  0  0  0  0  0  0  0
   24.0660    0.4740   32.8320 C   0  0  0  0  0  0  0  0  0  0  0  0
   24.6000   10.6030   27.5110 H   0  0  0  0  0  0  0  0  0  0  0  0
   25.8110   10.3140   28.8200 H   0  0  0  0  0  0  0  0  0  0  0  0
   26.3140   11.1520   27.3310 H   0  0  0  0  0  0  0  0  0  0  0  0
   22.6650   12.3080   28.8300 H   0  0  0  0  0  0  0  0  0  0  0  0
   23.2750   13.1700   30.2870 H   0  0  0  0  0  0  0  0  0  0  0  0
   23.2860   10.1310   29.6970 H   0  0  0  0  0  0  0  0  0  0  0  0
   24.2710   10.8530   31.0870 H   0  0  0  0  0  0  0  0  0  0  0  0
   19.5280    6.9100   32.4960 H   0  0  0  0  0  0  0  0  0  0  0  0
   18.1290   10.0350   33.7940 H   0  0  0  0  0  0  0  0  0  0  0  0
   17.9880    8.2790   33.7440 H   0  0  0  0  0  0  0  0  0  0  0  0
   22.7210    6.7220   30.4150 H   0  0  0  0  0  0  0  0  0  0  0  0
   21.3660    3.3980   29.8150 H   0  0  0  0  0  0  0  0  0  0  0  0
   22.1150    4.8060   28.9310 H   0  0  0  0  0  0  0  0  0  0  0  0
   26.0190    6.5550   28.7310 H   0  0  0  0  0  0  0  0  0  0  0  0
   24.5880    7.7080   28.7160 H   0  0  0  0  0  0  0  0  0  0  0  0
   25.4320    7.3230   30.3000 H   0  0  0  0  0  0  0  0  0  0  0  0
   26.5610    5.1720   30.5780 H   0  0  0  0  0  0  0  0  0  0  0  0
   26.8460    3.1790   32.0210 H   0  0  0  0  0  0  0  0  0  0  0  0
   22.6450    2.1970   31.5080 H   0  0  0  0  0  0  0  0  0  0  0  0
   24.6170   -0.2700   33.4560 H   0  0  0  0  0  0  0  0  0  0  0  0
   23.1820    0.8720   33.3740 H   0  0  0  0  0  0  0  0  0  0  0  0
   23.7970    0.0440   31.8430 H   0  0  0  0  0  0  0  0  0  0  0  0
  1  2  1  0  0  0  0
  1 31  1  0  0  0  0
  1 32  1  0  0  0  0
  1 33  1  0  0  0  0
  2  3  2  0  0  0  0
  2  4  2  0  0  0  0
  2  5  1  0  0  0  0
  5  6  1  0  0  0  0
  5 34  1  0  0  0  0
  5 35  1  0  0  0  0
  6  7  1  0  0  0  0
  6 36  1  0  0  0  0
  6 37  1  0  0  0  0
  7  8  1  0  0  0  0
  8 14  2  0  0  0  0
  8  9  1  0  0  0  0
  9 10  2  0  0  0  0
 10 11  1  0  0  0  0
 10 17  1  0  0  0  0
 11 12  2  0  0  0  0
 11 38  1  0  0  0  0
 12 13  1  0  0  0  0
 12 14  1  0  0  0  0
 13 39  1  0  0  0  0
 13 40  1  0  0  0  0
 14 15  1  0  0  0  0
 15 16  3  0  0  0  0
 17 18  1  0  0  0  0
 17 41  1  0  0  0  0
 18 19  2  0  0  0  0
 18 20  1  0  0  0  0
 20 21  1  0  0  0  0
 20 42  1  0  0  0  0
 20 43  1  0  0  0  0
 21 28  2  0  0  0  0
 21 22  1  0  0  0  0
 22 23  1  0  0  0  0
 22 25  2  0  0  0  0
 23 24  1  0  0  0  0
 24 44  1  0  0  0  0
 24 45  1  0  0  0  0
 24 46  1  0  0  0  0
 25 26  1  0  0  0  0
 25 47  1  0  0  0  0
 26 27  2  0  0  0  0
 26 48  1  0  0  0  0
 27 28  1  0  0  0  0
 27 29  1  0  0  0  0
 28 49  1  0  0  0  0
 29 30  1  0  0  0  0
 30 50  1  0  0  0  0
 30 51  1  0  0  0  0
 30 52  1  0  0  0  0
M  END
$$$$
