45
 OpenBabel02232411163D
Structure written by MMmdl.
 48 51  0  0  0  0  0  0  0  0999 V2000
    3.7610  -49.9820    5.6940 O   0  0  0  0  0  0  0  0  0  0  0  0
    3.0140  -49.2110    6.3310 C   0  0  0  0  0  0  0  0  0  0  0  0
    3.3700  -48.2520    7.0280 O   0  5  0  0  0  0  0  0  0  0  0  0
    1.5140  -49.5550    6.2460 C   0  0  0  0  0  0  0  0  0  0  0  0
   -0.2650  -51.0020    6.2720 C   0  0  0  0  0  0  0  0  0  0  0  0
   -1.1250  -52.1080    6.3910 C   0  0  0  0  0  0  0  0  0  0  0  0
   -2.4860  -51.8770    6.2520 C   0  0  0  0  0  0  0  0  0  0  0  0
   -2.9890  -50.5810    5.9840 C   0  0  0  0  0  0  0  0  0  0  0  0
   -2.1450  -49.4860    5.8630 C   0  0  0  0  0  0  0  0  0  0  0  0
   -0.7620  -49.6750    6.0160 C   0  0  0  0  0  0  0  0  0  0  0  0
    0.3810  -48.7850    6.0150 C   0  0  0  0  0  0  0  0  0  0  0  0
    0.2320  -47.3080    5.8960 C   0  0  0  0  0  0  0  0  0  0  0  0
   -0.2360  -46.7540    7.2570 C   0  0  0  0  0  0  0  0  0  0  0  0
   -0.9360  -45.4040    7.1920 C   0  0  0  0  0  0  0  0  0  0  0  0
   -2.2730  -45.5020    6.6010 O   0  0  0  0  0  0  0  0  0  0  0  0
   -3.3580  -45.6250    7.4380 C   0  0  0  0  0  0  0  0  0  0  0  0
   -5.7010  -45.8190    8.9290 C   0  0  0  0  0  0  0  0  0  0  0  0
   -4.5410  -46.4480    9.3670 C   0  0  0  0  0  0  0  0  0  0  0  0
   -3.3550  -46.3580    8.6290 C   0  0  0  0  0  0  0  0  0  0  0  0
   -0.7460  -53.1090    6.5940 H   0  0  0  0  0  0  0  0  0  0  0  0
   -3.1940  -52.6990    6.3550 H   0  0  0  0  0  0  0  0  0  0  0  0
   -4.0660  -50.4490    5.8740 H   0  0  0  0  0  0  0  0  0  0  0  0
   -2.5590  -48.4960    5.6620 H   0  0  0  0  0  0  0  0  0  0  0  0
   -0.5510  -47.0770    5.1280 H   0  0  0  0  0  0  0  0  0  0  0  0
    1.1830  -46.8150    5.5910 H   0  0  0  0  0  0  0  0  0  0  0  0
   -0.9450  -47.4910    7.7080 H   0  0  0  0  0  0  0  0  0  0  0  0
    0.6470  -46.6490    7.9280 H   0  0  0  0  0  0  0  0  0  0  0  0
   -0.4610  -44.7190    6.4560 H   0  0  0  0  0  0  0  0  0  0  0  0
   -1.0280  -44.9330    8.1940 H   0  0  0  0  0  0  0  0  0  0  0  0
   -2.4700  -46.8680    8.9870 H   0  0  0  0  0  0  0  0  0  0  0  0
   -5.7070  -45.1000    7.7150 C   0  0  0  0  0  0  0  0  0  0  0  0
   -4.5310  -44.9770    6.9690 C   0  0  0  0  0  0  0  0  0  0  0  0
   -4.4980  -44.1890    5.6940 C   0  0  0  0  0  0  0  0  0  0  0  0
   -5.8560  -44.1840    4.9840 C   0  0  0  0  0  0  0  0  0  0  0  0
   -6.9960  -43.7620    5.9160 C   0  0  0  0  0  0  0  0  0  0  0  0
   -7.0170  -44.5220    7.2530 C   0  0  0  0  0  0  0  0  0  0  0  0
   -4.5570  -47.0270   10.2910 H   0  0  0  0  0  0  0  0  0  0  0  0
   -6.6160  -45.8910    9.5130 H   0  0  0  0  0  0  0  0  0  0  0  0
   -3.7320  -44.6210    5.0030 H   0  0  0  0  0  0  0  0  0  0  0  0
   -4.2150  -43.1340    5.9300 H   0  0  0  0  0  0  0  0  0  0  0  0
   -6.0800  -45.2010    4.5910 H   0  0  0  0  0  0  0  0  0  0  0  0
   -5.7950  -43.4690    4.1350 H   0  0  0  0  0  0  0  0  0  0  0  0
   -6.9180  -42.6700    6.1080 H   0  0  0  0  0  0  0  0  0  0  0  0
   -7.9650  -43.9600    5.3970 H   0  0  0  0  0  0  0  0  0  0  0  0
   -7.3920  -43.8330    8.0470 H   0  0  0  0  0  0  0  0  0  0  0  0
   -7.7420  -45.3740    7.1600 H   0  0  0  0  0  0  0  0  0  0  0  0
    1.1290  -50.9050    6.4010 N   0  0  0  0  0  0  0  0  0  0  0  0
    1.7320  -51.7040    6.5570 H   0  0  0  0  0  0  0  0  0  0  0  0
  1  2  2  0  0  0  0
  2  3  1  0  0  0  0
  2  4  1  0  0  0  0
  4 11  2  0  0  0  0
  4 47  1  0  0  0  0
  5  6  2  0  0  0  0
  5 10  1  0  0  0  0
  5 47  1  0  0  0  0
  6  7  1  0  0  0  0
  6 20  1  0  0  0  0
  7  8  2  0  0  0  0
  7 21  1  0  0  0  0
  8  9  1  0  0  0  0
  8 22  1  0  0  0  0
  9 10  2  0  0  0  0
  9 23  1  0  0  0  0
 10 11  1  0  0  0  0
 11 12  1  0  0  0  0
 12 24  1  0  0  0  0
 12 25  1  0  0  0  0
 12 13  1  0  0  0  0
 13 14  1  0  0  0  0
 13 26  1  0  0  0  0
 13 27  1  0  0  0  0
 14 15  1  0  0  0  0
 14 28  1  0  0  0  0
 14 29  1  0  0  0  0
 15 16  1  0  0  0  0
 16 19  2  0  0  0  0
 16 32  1  0  0  0  0
 17 18  2  0  0  0  0
 17 31  1  0  0  0  0
 17 38  1  0  0  0  0
 18 19  1  0  0  0  0
 18 37  1  0  0  0  0
 19 30  1  0  0  0  0
 31 32  2  0  0  0  0
 31 36  1  0  0  0  0
 32 33  1  0  0  0  0
 33 34  1  0  0  0  0
 33 39  1  0  0  0  0
 33 40  1  0  0  0  0
 34 35  1  0  0  0  0
 34 41  1  0  0  0  0
 34 42  1  0  0  0  0
 35 36  1  0  0  0  0
 35 43  1  0  0  0  0
 35 44  1  0  0  0  0
 36 45  1  0  0  0  0
 36 46  1  0  0  0  0
 47 48  1  0  0  0  0
M  CHG  1   3  -1
M  END
$$$$
