jmc_27
 OpenBabel02232411173D
Structure written by MMmdl.
 36 38  0  0  1  0  0  0  0  0999 V2000
   -1.5680   21.5440  -27.5890 C   0  0  0  0  0  0  0  0  0  0  0  0
   -1.0800   22.6210  -28.3320 C   0  0  0  0  0  0  0  0  0  0  0  0
   -1.8780   23.1800  -29.3330 C   0  0  0  0  0  0  0  0  0  0  0  0
   -3.1550   22.6830  -29.6240 C   0  0  0  0  0  0  0  0  0  0  0  0
   -3.6210   21.6050  -28.8550 C   0  0  0  0  0  0  0  0  0  0  0  0
   -2.8450   21.0370  -27.8440 C   0  0  0  0  0  0  0  0  0  0  0  0
   -5.1780   20.9620  -29.1720 Cl  0  0  0  0  0  0  0  0  0  0  0  0
   -4.0130   23.1940  -30.7450 C   0  0  0  0  0  0  0  0  0  0  0  0
   -4.4090   22.4740  -31.6360 O   0  0  0  0  0  0  0  0  0  0  0  0
   -4.3350   24.5640  -30.6410 N   0  0  0  0  0  0  0  0  0  0  0  0
   -5.1860   25.3010  -31.5120 C   0  0  0  0  0  0  0  0  0  0  0  0
   -5.8450   24.7340  -32.6150 C   0  0  0  0  0  0  0  0  0  0  0  0
   -6.7030   25.5450  -33.3710 C   0  0  0  0  0  0  0  0  0  0  0  0
   -6.9140   26.8600  -33.1090 N   0  0  0  0  0  0  0  0  0  0  0  0
   -6.2500   27.4050  -32.0310 C   0  0  0  0  0  0  0  0  0  0  0  0
   -5.3830   26.6670  -31.2120 C   0  0  0  0  0  0  0  0  0  0  0  0
   -6.5560   28.7740  -31.7740 N   0  0  0  0  0  0  0  0  0  0  0  0
   -5.6920   29.7080  -31.1520 C   0  0  0  0  0  0  0  0  0  0  0  0
   -4.5590   29.4120  -30.8290 O   0  0  0  0  0  0  0  0  0  0  0  0
   -6.3170   31.0490  -30.9180 C   0  0  1  0  0  0  0  0  0  0  0  0
   -5.7830   31.9160  -29.7760 C   0  0  0  0  0  0  0  0  0  0  0  0
   -5.5550   32.3400  -31.2020 C   0  0  1  0  0  0  0  0  0  0  0  0
   -3.9540   32.2400  -31.8690 Cl  0  0  0  0  0  0  0  0  0  0  0  0
   -1.2480   24.5160  -30.2020 Cl  0  0  0  0  0  0  0  0  0  0  0  0
   -7.4010   31.1000  -31.1190 H   0  0  0  0  0  0  0  0  0  0  0  0
   -6.1240   33.1920  -31.6150 H   0  0  0  0  0  0  0  0  0  0  0  0
   -0.9470   21.0980  -26.8030 H   0  0  0  0  0  0  0  0  0  0  0  0
   -0.0840   23.0200  -28.1140 H   0  0  0  0  0  0  0  0  0  0  0  0
   -3.2200   20.2080  -27.2410 H   0  0  0  0  0  0  0  0  0  0  0  0
   -3.9370   25.0910  -29.8420 H   0  0  0  0  0  0  0  0  0  0  0  0
   -5.7240   23.6800  -32.8820 H   0  0  0  0  0  0  0  0  0  0  0  0
   -7.2540   25.1260  -34.2300 H   0  0  0  0  0  0  0  0  0  0  0  0
   -4.8760   27.1370  -30.3670 H   0  0  0  0  0  0  0  0  0  0  0  0
   -7.4980   29.0960  -32.0930 H   0  0  0  0  0  0  0  0  0  0  0  0
   -6.5140   32.4860  -29.1770 H   0  0  0  0  0  0  0  0  0  0  0  0
   -4.9430   31.5550  -29.1660 H   0  0  0  0  0  0  0  0  0  0  0  0
  1  2  2  0  0  0  0
  1  6  1  0  0  0  0
  1 27  1  0  0  0  0
  2  3  1  0  0  0  0
  2 28  1  0  0  0  0
  3  4  2  0  0  0  0
  3 24  1  0  0  0  0
  4  5  1  0  0  0  0
  4  8  1  0  0  0  0
  5  6  2  0  0  0  0
  5  7  1  0  0  0  0
  6 29  1  0  0  0  0
  8  9  2  0  0  0  0
  8 10  1  0  0  0  0
 10 11  1  0  0  0  0
 10 30  1  0  0  0  0
 11 12  2  0  0  0  0
 11 16  1  0  0  0  0
 12 13  1  0  0  0  0
 12 31  1  0  0  0  0
 13 14  2  0  0  0  0
 13 32  1  0  0  0  0
 14 15  1  0  0  0  0
 15 16  2  0  0  0  0
 15 17  1  0  0  0  0
 16 33  1  0  0  0  0
 17 18  1  0  0  0  0
 17 34  1  0  0  0  0
 18 19  2  0  0  0  0
 18 20  1  0  0  0  0
 20 21  1  0  0  0  0
 20 22  1  0  0  0  0
 20 25  1  6  0  0  0
 21 22  1  0  0  0  0
 21 35  1  0  0  0  0
 21 36  1  0  0  0  0
 22 23  1  0  0  0  0
 22 26  1  6  0  0  0
M  END
$$$$
