46
                    3D
 Schrodinger Suite 2022-3.
 45 48  0  0  1  0  0  0  0  0999 V2000
    3.4780  -48.4460    7.2210 O   0  0  0  0  0  0  0  0  0  0  0  0
    3.0700  -49.3540    6.4830 C   0  0  0  0  0  0  0  0  0  0  0  0
    3.7630  -50.1250    5.7920 O   0  5  0  0  0  0  0  0  0  0  0  0
    1.5520  -49.6070    6.4120 C   0  0  0  0  0  0  0  0  0  0  0  0
   -0.3400  -50.8850    6.5690 C   0  0  0  0  0  0  0  0  0  0  0  0
   -1.2850  -51.9030    6.7810 C   0  0  0  0  0  0  0  0  0  0  0  0
   -2.6090  -51.6180    6.4800 C   0  0  0  0  0  0  0  0  0  0  0  0
   -2.9900  -50.3520    5.9760 C   0  0  0  0  0  0  0  0  0  0  0  0
   -2.0610  -49.3420    5.7670 C   0  0  0  0  0  0  0  0  0  0  0  0
   -0.7100  -49.5860    6.0630 C   0  0  0  0  0  0  0  0  0  0  0  0
    0.5030  -48.7990    5.9880 C   0  0  0  0  0  0  0  0  0  0  0  0
    0.5490  -47.3810    5.5440 C   0  0  0  0  0  0  0  0  0  0  0  0
    0.5330  -46.3890    6.7220 C   0  0  0  0  0  0  0  0  0  0  0  0
   -0.7840  -46.3840    7.4950 C   0  0  0  0  0  0  0  0  0  0  0  0
   -1.7280  -45.7320    6.5710 O   0  0  0  0  0  0  0  0  0  0  0  0
   -3.0150  -45.5450    6.9860 C   0  0  0  0  0  0  0  0  0  0  0  0
   -4.8960  -45.7460    8.4970 C   0  0  0  0  0  0  0  0  0  0  0  0
   -3.5450  -45.9930    8.2040 C   0  0  0  0  0  0  0  0  0  0  0  0
   -0.9970  -52.8790    7.1710 H   0  0  0  0  0  0  0  0  0  0  0  0
   -3.3780  -52.3760    6.6320 H   0  0  0  0  0  0  0  0  0  0  0  0
   -4.0430  -50.1780    5.7530 H   0  0  0  0  0  0  0  0  0  0  0  0
   -2.3850  -48.3740    5.3810 H   0  0  0  0  0  0  0  0  0  0  0  0
   -0.3460  -47.1680    4.9020 H   0  0  0  0  0  0  0  0  0  0  0  0
    1.4660  -47.1860    4.9390 H   0  0  0  0  0  0  0  0  0  0  0  0
    0.6970  -45.3590    6.3270 H   0  0  0  0  0  0  0  0  0  0  0  0
    1.3480  -46.6520    7.4370 H   0  0  0  0  0  0  0  0  0  0  0  0
   -0.7310  -45.7470    8.4030 H   0  0  0  0  0  0  0  0  0  0  0  0
   -1.1730  -47.4040    7.6980 H   0  0  0  0  0  0  0  0  0  0  0  0
   -2.9540  -46.5450    8.9280 H   0  0  0  0  0  0  0  0  0  0  0  0
   -3.8020  -44.8390    6.0380 C   0  0  0  0  0  0  0  0  0  0  0  0
   -5.3270  -46.0980    9.4350 H   0  0  0  0  0  0  0  0  0  0  0  0
   -3.3770  -44.5120    5.0950 H   0  0  0  0  0  0  0  0  0  0  0  0
    1.0480  -50.8700    6.7790 N   0  0  0  0  0  0  0  0  0  0  0  0
   -7.4410  -43.8900    6.3990 C   0  0  0  0  0  0  0  0  0  0  0  0
   -6.1830  -43.9680    5.4930 C   0  0  0  0  0  0  0  0  0  0  0  0
   -5.1290  -44.6140    6.3500 C   0  0  0  0  0  0  0  0  0  0  0  0
   -5.6800  -45.0670    7.5790 C   0  0  0  0  0  0  0  0  0  0  0  0
   -7.1440  -44.7440    7.6620 C   0  0  0  0  0  0  0  0  0  0  0  0
   -7.7520  -45.6780    7.6430 H   0  0  0  0  0  0  0  0  0  0  0  0
   -7.3780  -44.1880    8.5900 H   0  0  0  0  0  0  0  0  0  0  0  0
   -8.3290  -44.2840    5.8640 H   0  0  0  0  0  0  0  0  0  0  0  0
   -7.6400  -42.8390    6.6910 H   0  0  0  0  0  0  0  0  0  0  0  0
   -5.8730  -42.9640    5.1420 H   0  0  0  0  0  0  0  0  0  0  0  0
   -6.3930  -44.6170    4.6110 H   0  0  0  0  0  0  0  0  0  0  0  0
    1.5720  -51.6730    7.1110 H   0  0  0  0  0  0  0  0  0  0  0  0
  1  2  2  0  0  0  0
  2  3  1  0  0  0  0
  2  4  1  0  0  0  0
  4 11  2  0  0  0  0
  4 33  1  0  0  0  0
  5  6  1  0  0  0  0
  5 10  2  0  0  0  0
  5 33  1  0  0  0  0
  6  7  2  0  0  0  0
  6 19  1  0  0  0  0
  7  8  1  0  0  0  0
  7 20  1  0  0  0  0
  8  9  2  0  0  0  0
  8 21  1  0  0  0  0
  9 10  1  0  0  0  0
  9 22  1  0  0  0  0
 10 11  1  0  0  0  0
 11 12  1  0  0  0  0
 12 23  1  0  0  0  0
 12 24  1  0  0  0  0
 12 13  1  0  0  0  0
 13 14  1  0  0  0  0
 13 25  1  0  0  0  0
 13 26  1  0  0  0  0
 14 15  1  0  0  0  0
 14 27  1  0  0  0  0
 14 28  1  0  0  0  0
 15 16  1  0  0  0  0
 16 18  2  0  0  0  0
 16 30  1  0  0  0  0
 17 18  1  0  0  0  0
 17 31  1  0  0  0  0
 17 37  2  0  0  0  0
 18 29  1  0  0  0  0
 30 32  1  0  0  0  0
 30 36  2  0  0  0  0
 33 45  1  0  0  0  0
 34 35  1  0  0  0  0
 34 38  1  0  0  0  0
 34 41  1  0  0  0  0
 34 42  1  0  0  0  0
 35 36  1  0  0  0  0
 35 43  1  0  0  0  0
 35 44  1  0  0  0  0
 36 37  1  0  0  0  0
 37 38  1  0  0  0  0
 38 39  1  0  0  0  0
 38 40  1  0  0  0  0
M  CHG  1   3  -1
M  END
$$$$
