18637-1
 OpenBabel02232411163D
Structure written by MMmdl.
 53 54  0  0  0  0  0  0  0  0999 V2000
   24.4410   10.9180   30.7610 C   0  0  0  0  0  0  0  0  0  0  0  0
   23.1100   11.2770   30.1340 C   0  0  0  0  0  0  0  0  0  0  0  0
   22.0410   11.3220   31.1520 O   0  0  0  0  0  0  0  0  0  0  0  0
   21.4490   10.1690   31.5440 C   0  0  0  0  0  0  0  0  0  0  0  0
   21.9170    8.9840   31.0920 N   0  0  0  0  0  0  0  0  0  0  0  0
   21.2100    7.8400   31.4390 C   0  0  0  0  0  0  0  0  0  0  0  0
   20.0790    7.8730   32.2500 C   0  0  0  0  0  0  0  0  0  0  0  0
   19.6050    9.1210   32.7330 C   0  0  0  0  0  0  0  0  0  0  0  0
   18.4760    9.1600   33.5120 N   0  0  0  0  0  0  0  0  0  0  0  0
   20.3000   10.3210   32.3780 C   0  0  0  0  0  0  0  0  0  0  0  0
   19.8920   11.6180   32.7540 C   0  0  0  0  0  0  0  0  0  0  0  0
   19.6060   12.7100   33.0210 N   0  0  0  0  0  0  0  0  0  0  0  0
   21.7720    6.6850   30.8580 N   0  0  0  0  0  0  0  0  0  0  0  0
   21.1930    5.3940   30.7950 C   0  0  0  0  0  0  0  0  0  0  0  0
   20.1320    5.1260   31.3160 O   0  0  0  0  0  0  0  0  0  0  0  0
   22.0070    4.4180   29.9540 C   0  0  0  0  0  0  0  0  0  0  0  0
   23.3310    4.0910   30.5760 C   0  0  0  0  0  0  0  0  0  0  0  0
   24.4610    4.9150   30.3740 C   0  0  0  0  0  0  0  0  0  0  0  0
   24.2060    5.9980   29.5500 O   0  0  0  0  0  0  0  0  0  0  0  0
   25.2120    7.0400   29.4270 C   0  0  0  0  0  0  0  0  0  0  0  0
   25.7080    4.6350   30.9480 C   0  0  0  0  0  0  0  0  0  0  0  0
   25.8560    3.4970   31.7460 C   0  0  0  0  0  0  0  0  0  0  0  0
   24.7140    2.6640   31.9600 C   0  0  0  0  0  0  0  0  0  0  0  0
   23.4840    2.9500   31.3750 C   0  0  0  0  0  0  0  0  0  0  0  0
   24.9430    1.6190   32.8450 O   0  0  0  0  0  0  0  0  0  0  0  0
   24.1680    0.4080   32.6450 C   0  0  0  0  0  0  0  0  0  0  0  0
   27.0760    3.1420   32.3870 N   0  0  0  0  0  0  0  0  0  0  0  0
   28.3710    3.5720   32.0070 C   0  0  0  0  0  0  0  0  0  0  0  0
   28.5320    4.3060   31.0450 O   0  0  0  0  0  0  0  0  0  0  0  0
   29.4800    3.0620   32.8740 C   0  0  0  0  0  0  0  0  0  0  0  0
   24.4040    9.9130   31.2430 H   0  0  0  0  0  0  0  0  0  0  0  0
   24.7430   11.6720   31.5180 H   0  0  0  0  0  0  0  0  0  0  0  0
   25.2260   10.8830   29.9630 H   0  0  0  0  0  0  0  0  0  0  0  0
   23.0790   12.3390   29.7900 H   0  0  0  0  0  0  0  0  0  0  0  0
   22.8210   10.5710   29.3230 H   0  0  0  0  0  0  0  0  0  0  0  0
   19.5380    6.9590   32.5030 H   0  0  0  0  0  0  0  0  0  0  0  0
   18.0730   10.0440   33.8220 H   0  0  0  0  0  0  0  0  0  0  0  0
   17.9740    8.2880   33.7690 H   0  0  0  0  0  0  0  0  0  0  0  0
   22.6820    6.8390   30.3570 H   0  0  0  0  0  0  0  0  0  0  0  0
   21.4100    3.4790   29.8200 H   0  0  0  0  0  0  0  0  0  0  0  0
   22.1750    4.8770   28.9420 H   0  0  0  0  0  0  0  0  0  0  0  0
   25.4960    7.4280   30.4270 H   0  0  0  0  0  0  0  0  0  0  0  0
   26.0810    6.6470   28.8590 H   0  0  0  0  0  0  0  0  0  0  0  0
   24.6550    7.8080   28.8410 H   0  0  0  0  0  0  0  0  0  0  0  0
   26.5630    5.2950   30.7680 H   0  0  0  0  0  0  0  0  0  0  0  0
   22.6360    2.2800   31.5380 H   0  0  0  0  0  0  0  0  0  0  0  0
   24.7240   -0.3210   33.2810 H   0  0  0  0  0  0  0  0  0  0  0  0
   23.1360    0.5640   33.0250 H   0  0  0  0  0  0  0  0  0  0  0  0
   24.1850    0.1040   31.5770 H   0  0  0  0  0  0  0  0  0  0  0  0
   27.0050    2.4000   33.1060 H   0  0  0  0  0  0  0  0  0  0  0  0
   29.1530    2.3670   33.6870 H   0  0  0  0  0  0  0  0  0  0  0  0
   30.2350    2.5120   32.2530 H   0  0  0  0  0  0  0  0  0  0  0  0
   30.0060    3.9220   33.3660 H   0  0  0  0  0  0  0  0  0  0  0  0
  1  2  1  0  0  0  0
  1 31  1  0  0  0  0
  1 32  1  0  0  0  0
  1 33  1  0  0  0  0
  2  3  1  0  0  0  0
  2 34  1  0  0  0  0
  2 35  1  0  0  0  0
  3  4  1  0  0  0  0
  4 10  2  0  0  0  0
  4  5  1  0  0  0  0
  5  6  2  0  0  0  0
  6  7  1  0  0  0  0
  6 13  1  0  0  0  0
  7  8  2  0  0  0  0
  7 36  1  0  0  0  0
  8  9  1  0  0  0  0
  8 10  1  0  0  0  0
  9 37  1  0  0  0  0
  9 38  1  0  0  0  0
 10 11  1  0  0  0  0
 11 12  3  0  0  0  0
 13 14  1  0  0  0  0
 13 39  1  0  0  0  0
 14 15  2  0  0  0  0
 14 16  1  0  0  0  0
 16 17  1  0  0  0  0
 16 40  1  0  0  0  0
 16 41  1  0  0  0  0
 17 24  2  0  0  0  0
 17 18  1  0  0  0  0
 18 19  1  0  0  0  0
 18 21  2  0  0  0  0
 19 20  1  0  0  0  0
 20 42  1  0  0  0  0
 20 43  1  0  0  0  0
 20 44  1  0  0  0  0
 21 22  1  0  0  0  0
 21 45  1  0  0  0  0
 22 23  2  0  0  0  0
 22 27  1  0  0  0  0
 23 24  1  0  0  0  0
 23 25  1  0  0  0  0
 24 46  1  0  0  0  0
 25 26  1  0  0  0  0
 26 47  1  0  0  0  0
 26 48  1  0  0  0  0
 26 49  1  0  0  0  0
 27 28  1  0  0  0  0
 27 50  1  0  0  0  0
 28 29  2  0  0  0  0
 28 30  1  0  0  0  0
 30 51  1  0  0  0  0
 30 52  1  0  0  0  0
 30 53  1  0  0  0  0
M  END
$$$$
