p38a_2bb
 OpenBabel02232411163D
Structure written by MMmdl.
 44 46  0  0  0  0  0  0  0  0999 V2000
   38.2180   36.4820   17.2530 C   0  0  0  0  0  0  0  0  0  0  0  0
   34.6390   35.1700   21.4370 C   0  0  0  0  0  0  0  0  0  0  0  0
   37.4280   36.0680   18.3210 C   0  0  0  0  0  0  0  0  0  0  0  0
   34.3620   39.2630   23.9960 C   0  0  0  0  0  0  0  0  0  0  0  0
   34.0170   39.1790   26.4880 C   0  0  0  0  0  0  0  0  0  0  0  0
   34.7460   38.0400   21.5540 C   0  0  0  0  0  0  0  0  0  0  0  0
   35.0360   37.3760   20.3110 C   0  0  0  0  0  0  0  0  0  0  0  0
   37.5720   36.6200   16.0160 C   0  0  0  0  0  0  0  0  0  0  0  0
   36.2190   36.3370   15.8200 C   0  0  0  0  0  0  0  0  0  0  0  0
   35.4470   35.9190   16.9090 C   0  0  0  0  0  0  0  0  0  0  0  0
   34.5330   37.2790   22.7430 C   0  0  0  0  0  0  0  0  0  0  0  0
   34.6680   39.4520   21.6750 C   0  0  0  0  0  0  0  0  0  0  0  0
   35.0260   36.0240   20.2820 C   0  0  0  0  0  0  0  0  0  0  0  0
   36.0560   35.7780   18.1600 C   0  0  0  0  0  0  0  0  0  0  0  0
   34.2630   35.1030   23.9340 C   0  0  0  0  0  0  0  0  0  0  0  0
   37.9660   35.9400   19.5270 F   0  0  0  0  0  0  0  0  0  0  0  0
   35.3150   35.1970   19.1980 O   0  0  0  0  0  0  0  0  0  0  0  0
   34.4730   40.0720   22.8500 N   0  0  0  0  0  0  0  0  0  0  0  0
   34.4460   33.9740   21.3980 O   0  0  0  0  0  0  0  0  0  0  0  0
   34.4920   35.8790   22.6820 N   0  0  0  0  0  0  0  0  0  0  0  0
   34.3440   37.8830   23.9640 N   0  0  0  0  0  0  0  0  0  0  0  0
   34.3220   39.9100   25.2150 N   0  0  0  0  0  0  0  0  0  0  0  0
   39.2780   36.7250   17.3770 H   0  0  0  0  0  0  0  0  0  0  0  0
   34.6070   38.2210   26.4970 H   0  0  0  0  0  0  0  0  0  0  0  0
   35.2680   37.9910   19.4380 H   0  0  0  0  0  0  0  0  0  0  0  0
   35.7520   36.4550   14.8380 H   0  0  0  0  0  0  0  0  0  0  0  0
   34.3790   35.7190   16.7750 H   0  0  0  0  0  0  0  0  0  0  0  0
   34.7550   40.0900   20.7800 H   0  0  0  0  0  0  0  0  0  0  0  0
   35.0170   35.4030   24.7130 H   0  0  0  0  0  0  0  0  0  0  0  0
   33.2350   35.3150   24.3340 H   0  0  0  0  0  0  0  0  0  0  0  0
   34.3620   34.0050   23.7330 H   0  0  0  0  0  0  0  0  0  0  0  0
   34.1050   40.9270   25.2380 H   0  0  0  0  0  0  0  0  0  0  0  0
   38.2800   37.0810   14.9870 F   0  0  0  0  0  0  0  0  0  0  0  0
   34.4230   40.0730   27.6630 C   0  0  0  0  0  0  0  0  0  0  0  0
   32.9150   38.9570   26.5260 H   0  0  0  0  0  0  0  0  0  0  0  0
   35.5140   40.3360   27.5680 H   0  0  0  0  0  0  0  0  0  0  0  0
   33.8830   41.0610   27.5820 H   0  0  0  0  0  0  0  0  0  0  0  0
   34.2850   40.7670   30.3140 C   0  0  0  0  0  0  0  0  0  0  0  0
   34.1200   39.3920   29.2650 S   0  0  0  0  0  0  0  0  0  0  0  0
   32.7530   38.8250   29.3620 O   0  0  0  0  0  0  0  0  0  0  0  0
   35.1310   38.3640   29.6080 O   0  0  0  0  0  0  0  0  0  0  0  0
   35.2660   41.2900   30.1610 H   0  0  0  0  0  0  0  0  0  0  0  0
   33.4950   41.5420   30.1280 H   0  0  0  0  0  0  0  0  0  0  0  0
   34.2260   40.4990   31.3980 H   0  0  0  0  0  0  0  0  0  0  0  0
  1  3  2  0  0  0  0
  1  8  1  0  0  0  0
  1 23  1  0  0  0  0
  2 13  1  0  0  0  0
  2 19  2  0  0  0  0
  2 20  1  0  0  0  0
  3 14  1  0  0  0  0
  3 16  1  0  0  0  0
  4 18  2  0  0  0  0
  4 21  1  0  0  0  0
  4 22  1  0  0  0  0
  5 22  1  0  0  0  0
  5 24  1  0  0  0  0
  5 34  1  0  0  0  0
  5 35  1  0  0  0  0
  6  7  1  0  0  0  0
  6 11  1  0  0  0  0
  6 12  2  0  0  0  0
  7 13  2  0  0  0  0
  7 25  1  0  0  0  0
  8  9  2  0  0  0  0
  8 33  1  0  0  0  0
  9 10  1  0  0  0  0
  9 26  1  0  0  0  0
 10 14  2  0  0  0  0
 10 27  1  0  0  0  0
 11 20  1  0  0  0  0
 11 21  2  0  0  0  0
 12 18  1  0  0  0  0
 12 28  1  0  0  0  0
 13 17  1  0  0  0  0
 14 17  1  0  0  0  0
 15 20  1  0  0  0  0
 15 29  1  0  0  0  0
 15 30  1  0  0  0  0
 15 31  1  0  0  0  0
 22 32  1  0  0  0  0
 34 36  1  0  0  0  0
 34 37  1  0  0  0  0
 34 39  1  0  0  0  0
 38 39  1  0  0  0  0
 38 42  1  0  0  0  0
 38 43  1  0  0  0  0
 38 44  1  0  0  0  0
 39 40  2  0  0  0  0
 39 41  2  0  0  0  0
M  END
$$$$
