p38a_2t
 OpenBabel02232411163D
Structure written by MMmdl.
 47 50  0  0  0  0  0  0  0  0999 V2000
   38.2980   36.5510   17.1460 C   0  0  0  0  0  0  0  0  0  0  0  0
   34.4970   35.0140   21.1410 C   0  0  0  0  0  0  0  0  0  0  0  0
   37.5070   36.0870   18.1940 C   0  0  0  0  0  0  0  0  0  0  0  0
   33.9320   39.0180   23.8230 C   0  0  0  0  0  0  0  0  0  0  0  0
   34.6340   37.8860   21.4010 C   0  0  0  0  0  0  0  0  0  0  0  0
   35.0510   37.2660   20.1730 C   0  0  0  0  0  0  0  0  0  0  0  0
   37.6580   36.7190   15.9100 C   0  0  0  0  0  0  0  0  0  0  0  0
   36.3100   36.4240   15.6920 C   0  0  0  0  0  0  0  0  0  0  0  0
   35.5410   35.9440   16.7570 C   0  0  0  0  0  0  0  0  0  0  0  0
   34.1860   37.0890   22.4930 C   0  0  0  0  0  0  0  0  0  0  0  0
   34.6600   39.2940   21.6090 C   0  0  0  0  0  0  0  0  0  0  0  0
   35.0130   35.9170   20.0800 C   0  0  0  0  0  0  0  0  0  0  0  0
   36.1470   35.7650   18.0040 C   0  0  0  0  0  0  0  0  0  0  0  0
   38.0300   35.9430   19.4040 F   0  0  0  0  0  0  0  0  0  0  0  0
   35.4230   35.1180   19.0140 O   0  0  0  0  0  0  0  0  0  0  0  0
   34.3340   39.8720   22.7740 N   0  0  0  0  0  0  0  0  0  0  0  0
   34.4240   33.8080   21.0760 O   0  0  0  0  0  0  0  0  0  0  0  0
   34.0800   35.6890   22.3490 N   0  0  0  0  0  0  0  0  0  0  0  0
   33.8560   37.6390   23.7000 N   0  0  0  0  0  0  0  0  0  0  0  0
   33.5900   39.5800   25.0240 N   0  0  0  0  0  0  0  0  0  0  0  0
   39.3500   36.8110   17.2890 H   0  0  0  0  0  0  0  0  0  0  0  0
   35.3970   37.9080   19.3610 H   0  0  0  0  0  0  0  0  0  0  0  0
   35.8450   36.5780   14.7160 H   0  0  0  0  0  0  0  0  0  0  0  0
   34.4780   35.7270   16.6100 H   0  0  0  0  0  0  0  0  0  0  0  0
   34.9560   39.9610   20.7830 H   0  0  0  0  0  0  0  0  0  0  0  0
   33.6550   40.6070   25.1560 H   0  0  0  0  0  0  0  0  0  0  0  0
   38.3620   37.2260   14.9010 F   0  0  0  0  0  0  0  0  0  0  0  0
   33.1200   40.4610   28.1010 C   0  0  0  0  0  0  0  0  0  0  0  0
   32.2670   39.6420   27.1240 C   0  0  0  0  0  0  0  0  0  0  0  0
   33.0940   38.7530   26.1750 C   0  0  0  0  0  0  0  0  0  0  0  0
   34.2560   38.0590   26.9150 C   0  0  0  0  0  0  0  0  0  0  0  0
   35.0250   39.0230   27.8190 C   0  0  0  0  0  0  0  0  0  0  0  0
   34.1320   39.6690   28.7570 O   0  0  0  0  0  0  0  0  0  0  0  0
   32.5060   40.8250   28.9570 H   0  0  0  0  0  0  0  0  0  0  0  0
   33.6200   41.3050   27.5750 H   0  0  0  0  0  0  0  0  0  0  0  0
   31.6350   40.3440   26.5230 H   0  0  0  0  0  0  0  0  0  0  0  0
   31.5800   38.9700   27.6970 H   0  0  0  0  0  0  0  0  0  0  0  0
   32.4110   37.9580   25.7510 H   0  0  0  0  0  0  0  0  0  0  0  0
   33.8140   37.2320   27.5280 H   0  0  0  0  0  0  0  0  0  0  0  0
   34.9560   37.5950   26.1790 H   0  0  0  0  0  0  0  0  0  0  0  0
   35.7230   38.4820   28.4970 H   0  0  0  0  0  0  0  0  0  0  0  0
   35.5470   39.8050   27.2210 H   0  0  0  0  0  0  0  0  0  0  0  0
   33.5560   34.8590   23.4790 C   0  0  0  0  0  0  0  0  0  0  0  0
   33.1060   35.5170   24.2910 H   0  0  0  0  0  0  0  0  0  0  0  0
   32.7220   34.1920   23.1010 H   0  0  0  0  0  0  0  0  0  0  0  0
   34.6320   34.0490   24.0510 C   0  0  0  0  0  0  0  0  0  0  0  0
   35.4910   33.4080   24.4820 N   0  0  0  0  0  0  0  0  0  0  0  0
  1  3  2  0  0  0  0
  1  7  1  0  0  0  0
  1 21  1  0  0  0  0
  2 12  1  0  0  0  0
  2 17  2  0  0  0  0
  2 18  1  0  0  0  0
  3 13  1  0  0  0  0
  3 14  1  0  0  0  0
  4 16  2  0  0  0  0
  4 19  1  0  0  0  0
  4 20  1  0  0  0  0
  5  6  1  0  0  0  0
  5 10  1  0  0  0  0
  5 11  2  0  0  0  0
  6 12  2  0  0  0  0
  6 22  1  0  0  0  0
  7  8  2  0  0  0  0
  7 27  1  0  0  0  0
  8  9  1  0  0  0  0
  8 23  1  0  0  0  0
  9 13  2  0  0  0  0
  9 24  1  0  0  0  0
 10 18  1  0  0  0  0
 10 19  2  0  0  0  0
 11 16  1  0  0  0  0
 11 25  1  0  0  0  0
 12 15  1  0  0  0  0
 13 15  1  0  0  0  0
 18 43  1  0  0  0  0
 20 26  1  0  0  0  0
 20 30  1  0  0  0  0
 28 29  1  0  0  0  0
 28 33  1  0  0  0  0
 28 34  1  0  0  0  0
 28 35  1  0  0  0  0
 29 30  1  0  0  0  0
 29 36  1  0  0  0  0
 29 37  1  0  0  0  0
 30 31  1  0  0  0  0
 30 38  1  0  0  0  0
 31 32  1  0  0  0  0
 31 39  1  0  0  0  0
 31 40  1  0  0  0  0
 32 33  1  0  0  0  0
 32 41  1  0  0  0  0
 32 42  1  0  0  0  0
 43 44  1  0  0  0  0
 43 45  1  0  0  0  0
 43 46  1  0  0  0  0
 46 47  3  0  0  0  0
M  END
$$$$
