p38a_3fmh
 OpenBabel02232411163D
Structure written by MMmdl.
 46 49  0  0  1  0  0  0  0  0999 V2000
   38.3620   37.2450   14.8700 F   0  0  0  0  0  0  0  0  0  0  0  0
   37.6750   36.7160   15.8790 C   0  0  0  0  0  0  0  0  0  0  0  0
   36.3370   36.3790   15.6650 C   0  0  0  0  0  0  0  0  0  0  0  0
   35.5830   35.8780   16.7310 C   0  0  0  0  0  0  0  0  0  0  0  0
   38.3210   36.5670   17.1140 C   0  0  0  0  0  0  0  0  0  0  0  0
   37.5460   36.0820   18.1640 C   0  0  0  0  0  0  0  0  0  0  0  0
   38.0740   35.9620   19.3750 F   0  0  0  0  0  0  0  0  0  0  0  0
   36.1950   35.7220   17.9770 C   0  0  0  0  0  0  0  0  0  0  0  0
   35.4820   35.0850   19.0050 O   0  0  0  0  0  0  0  0  0  0  0  0
   35.0660   35.9170   20.0410 C   0  0  0  0  0  0  0  0  0  0  0  0
   34.5160   35.0700   21.1350 C   0  0  0  0  0  0  0  0  0  0  0  0
   34.3790   33.8670   21.0940 O   0  0  0  0  0  0  0  0  0  0  0  0
   34.1340   35.7970   22.3160 N   0  0  0  0  0  0  0  0  0  0  0  0
   33.6130   35.0490   23.4950 C   0  0  0  0  0  0  0  0  0  0  0  0
   34.2370   37.1950   22.3930 C   0  0  0  0  0  0  0  0  0  0  0  0
   33.8790   37.8100   23.5690 N   0  0  0  0  0  0  0  0  0  0  0  0
   35.1210   37.2670   20.0780 C   0  0  0  0  0  0  0  0  0  0  0  0
   34.6990   37.9460   21.2720 C   0  0  0  0  0  0  0  0  0  0  0  0
   34.7330   39.3580   21.4120 C   0  0  0  0  0  0  0  0  0  0  0  0
   34.4030   39.9840   22.5530 N   0  0  0  0  0  0  0  0  0  0  0  0
   34.0020   39.1780   23.6300 C   0  0  0  0  0  0  0  0  0  0  0  0
   33.7880   39.8130   24.8520 N   0  0  0  0  0  0  0  0  0  0  0  0
   32.8320   39.2100   25.8390 C   0  0  2  0  0  0  0  0  0  0  0  0
   31.3900   39.5130   25.4280 C   0  0  0  0  0  0  0  0  0  0  0  0
   33.2250   39.8400   27.2080 C   0  0  0  0  0  0  0  0  0  0  0  0
   32.4780   39.2700   28.3530 N   0  0  0  0  0  0  0  0  0  0  0  0
   31.7580   38.1170   28.3280 N   0  0  0  0  0  0  0  0  0  0  0  0
   31.2690   37.9980   29.5970 C   0  0  0  0  0  0  0  0  0  0  0  0
   31.7240   39.0950   30.3720 N   0  0  0  0  0  0  0  0  0  0  0  0
   32.4470   39.8450   29.6010 N   0  0  0  0  0  0  0  0  0  0  0  0
   35.8660   36.5200   14.6890 H   0  0  0  0  0  0  0  0  0  0  0  0
   34.5260   35.6340   16.5840 H   0  0  0  0  0  0  0  0  0  0  0  0
   39.3660   36.8560   17.2570 H   0  0  0  0  0  0  0  0  0  0  0  0
   34.2420   35.2710   24.4000 H   0  0  0  0  0  0  0  0  0  0  0  0
   32.5570   35.3670   23.7120 H   0  0  0  0  0  0  0  0  0  0  0  0
   33.6320   33.9460   23.2940 H   0  0  0  0  0  0  0  0  0  0  0  0
   35.4860   37.8720   19.2450 H   0  0  0  0  0  0  0  0  0  0  0  0
   35.0260   39.9870   20.5570 H   0  0  0  0  0  0  0  0  0  0  0  0
   33.7590   40.8570   24.8440 H   0  0  0  0  0  0  0  0  0  0  0  0
   33.0000   38.0950   25.8830 H   0  0  0  0  0  0  0  0  0  0  0  0
   30.6750   39.0600   26.1520 H   0  0  0  0  0  0  0  0  0  0  0  0
   31.2170   40.6100   25.3760 H   0  0  0  0  0  0  0  0  0  0  0  0
   31.1770   39.0650   24.4300 H   0  0  0  0  0  0  0  0  0  0  0  0
   34.3300   39.6710   27.3810 H   0  0  0  0  0  0  0  0  0  0  0  0
   33.0390   40.9530   27.1940 H   0  0  0  0  0  0  0  0  0  0  0  0
   30.6290   37.1990   29.9660 H   0  0  0  0  0  0  0  0  0  0  0  0
  1  2  1  0  0  0  0
  2  3  2  0  0  0  0
  2  5  1  0  0  0  0
  3  4  1  0  0  0  0
  3 31  1  0  0  0  0
  4  8  2  0  0  0  0
  4 32  1  0  0  0  0
  5  6  2  0  0  0  0
  5 33  1  0  0  0  0
  6  7  1  0  0  0  0
  6  8  1  0  0  0  0
  8  9  1  0  0  0  0
  9 10  1  0  0  0  0
 10 11  1  0  0  0  0
 10 17  2  0  0  0  0
 11 12  2  0  0  0  0
 11 13  1  0  0  0  0
 13 14  1  0  0  0  0
 13 15  1  0  0  0  0
 14 34  1  0  0  0  0
 14 35  1  0  0  0  0
 14 36  1  0  0  0  0
 15 16  2  0  0  0  0
 15 18  1  0  0  0  0
 16 21  1  0  0  0  0
 17 18  1  0  0  0  0
 17 37  1  0  0  0  0
 18 19  2  0  0  0  0
 19 20  1  0  0  0  0
 19 38  1  0  0  0  0
 20 21  2  0  0  0  0
 21 22  1  0  0  0  0
 22 23  1  0  0  0  0
 22 39  1  0  0  0  0
 23 24  1  0  0  0  0
 23 25  1  0  0  0  0
 23 40  1  6  0  0  0
 24 41  1  0  0  0  0
 24 42  1  0  0  0  0
 24 43  1  0  0  0  0
 25 26  1  0  0  0  0
 25 44  1  0  0  0  0
 25 45  1  0  0  0  0
 26 27  1  0  0  0  0
 26 30  1  0  0  0  0
 27 28  2  0  0  0  0
 28 29  1  0  0  0  0
 28 46  1  0  0  0  0
 29 30  2  0  0  0  0
M  END
$$$$
