43
                    3D
 Schrodinger Suite 2022-3.
 44 47  0  0  1  0  0  0  0  0999 V2000
    3.5790  -48.5980    7.2270 O   0  0  0  0  0  0  0  0  0  0  0  0
    3.1550  -49.4910    6.4820 C   0  0  0  0  0  0  0  0  0  0  0  0
    3.8340  -50.2650    5.7820 O   0  5  0  0  0  0  0  0  0  0  0  0
    1.6320  -49.7130    6.4100 C   0  0  0  0  0  0  0  0  0  0  0  0
   -0.2920  -50.9440    6.5690 C   0  0  0  0  0  0  0  0  0  0  0  0
   -1.2620  -51.9360    6.7860 C   0  0  0  0  0  0  0  0  0  0  0  0
   -2.5790  -51.6160    6.4940 C   0  0  0  0  0  0  0  0  0  0  0  0
   -2.9300  -50.3400    5.9930 C   0  0  0  0  0  0  0  0  0  0  0  0
   -1.9760  -49.3540    5.7790 C   0  0  0  0  0  0  0  0  0  0  0  0
   -0.6300  -49.6340    6.0690 C   0  0  0  0  0  0  0  0  0  0  0  0
    0.6010  -48.8780    5.9930 C   0  0  0  0  0  0  0  0  0  0  0  0
    0.6850  -47.4560    5.5640 C   0  0  0  0  0  0  0  0  0  0  0  0
    0.6870  -46.4820    6.7580 C   0  0  0  0  0  0  0  0  0  0  0  0
   -0.6420  -46.4480    7.5090 C   0  0  0  0  0  0  0  0  0  0  0  0
   -1.5370  -45.7670    6.5580 O   0  0  0  0  0  0  0  0  0  0  0  0
   -2.8270  -45.5240    6.9150 C   0  0  0  0  0  0  0  0  0  0  0  0
   -4.7580  -45.6630    8.3610 C   0  0  0  0  0  0  0  0  0  0  0  0
   -3.4390  -45.9640    8.1320 C   0  0  0  0  0  0  0  0  0  0  0  0
   -0.9980  -52.9200    7.1740 H   0  0  0  0  0  0  0  0  0  0  0  0
   -3.3670  -52.3540    6.6510 H   0  0  0  0  0  0  0  0  0  0  0  0
   -3.9800  -50.1380    5.7770 H   0  0  0  0  0  0  0  0  0  0  0  0
   -2.2760  -48.3780    5.3950 H   0  0  0  0  0  0  0  0  0  0  0  0
   -0.2010  -47.2110    4.9210 H   0  0  0  0  0  0  0  0  0  0  0  0
    1.6110  -47.2770    4.9670 H   0  0  0  0  0  0  0  0  0  0  0  0
    0.8890  -45.4520    6.3800 H   0  0  0  0  0  0  0  0  0  0  0  0
    1.4840  -46.7870    7.4790 H   0  0  0  0  0  0  0  0  0  0  0  0
   -0.5960  -45.8160    8.4200 H   0  0  0  0  0  0  0  0  0  0  0  0
   -1.0630  -47.4590    7.6960 H   0  0  0  0  0  0  0  0  0  0  0  0
   -2.8850  -46.5460    8.8660 H   0  0  0  0  0  0  0  0  0  0  0  0
   -3.5390  -44.7920    5.9750 C   0  0  0  0  0  0  0  0  0  0  0  0
   -5.2520  -45.9940    9.2790 H   0  0  0  0  0  0  0  0  0  0  0  0
   -4.9030  -44.4890    6.2040 C   0  0  0  0  0  0  0  0  0  0  0  0
   -5.5300  -44.9340    7.4030 C   0  0  0  0  0  0  0  0  0  0  0  0
   -6.9260  -44.6960    7.5870 C   0  0  0  0  0  0  0  0  0  0  0  0
   -7.6550  -44.0610    6.6140 C   0  0  0  0  0  0  0  0  0  0  0  0
   -7.0220  -43.5920    5.4250 C   0  0  0  0  0  0  0  0  0  0  0  0
   -5.6820  -43.7870    5.2240 C   0  0  0  0  0  0  0  0  0  0  0  0
   -7.4080  -45.0480    8.5010 H   0  0  0  0  0  0  0  0  0  0  0  0
   -8.7260  -43.9170    6.7190 H   0  0  0  0  0  0  0  0  0  0  0  0
   -7.6340  -43.0820    4.6850 H   0  0  0  0  0  0  0  0  0  0  0  0
   -5.1850  -43.4290    4.3220 H   0  0  0  0  0  0  0  0  0  0  0  0
   -3.0690  -44.4630    5.0540 H   0  0  0  0  0  0  0  0  0  0  0  0
    1.0980  -50.9650    6.7720 N   0  0  0  0  0  0  0  0  0  0  0  0
    1.6000  -51.7790    7.1090 H   0  0  0  0  0  0  0  0  0  0  0  0
  1  2  2  0  0  0  0
  2  3  1  0  0  0  0
  2  4  1  0  0  0  0
  4 11  2  0  0  0  0
  4 43  1  0  0  0  0
  5  6  1  0  0  0  0
  5 10  2  0  0  0  0
  5 43  1  0  0  0  0
  6  7  2  0  0  0  0
  6 19  1  0  0  0  0
  7  8  1  0  0  0  0
  7 20  1  0  0  0  0
  8  9  2  0  0  0  0
  8 21  1  0  0  0  0
  9 10  1  0  0  0  0
  9 22  1  0  0  0  0
 10 11  1  0  0  0  0
 11 12  1  0  0  0  0
 12 23  1  0  0  0  0
 12 24  1  0  0  0  0
 12 13  1  0  0  0  0
 13 14  1  0  0  0  0
 13 25  1  0  0  0  0
 13 26  1  0  0  0  0
 14 15  1  0  0  0  0
 14 27  1  0  0  0  0
 14 28  1  0  0  0  0
 15 16  1  0  0  0  0
 16 18  2  0  0  0  0
 16 30  1  0  0  0  0
 17 18  1  0  0  0  0
 17 31  1  0  0  0  0
 17 33  2  0  0  0  0
 18 29  1  0  0  0  0
 30 32  2  0  0  0  0
 30 42  1  0  0  0  0
 32 33  1  0  0  0  0
 32 37  1  0  0  0  0
 33 34  1  0  0  0  0
 34 35  2  0  0  0  0
 34 38  1  0  0  0  0
 35 36  1  0  0  0  0
 35 39  1  0  0  0  0
 36 37  2  0  0  0  0
 36 40  1  0  0  0  0
 37 41  1  0  0  0  0
 43 44  1  0  0  0  0
M  CHG  1   3  -1
M  END
$$$$
