p38a_2o
 OpenBabel02232411163D
Structure written by MMmdl.
 55 58  0  0  0  0  0  0  0  0999 V2000
   38.2580   36.5100   17.1970 C   0  0  0  0  0  0  0  0  0  0  0  0
   34.5940   35.1020   21.2960 C   0  0  0  0  0  0  0  0  0  0  0  0
   37.4640   36.0670   18.2520 C   0  0  0  0  0  0  0  0  0  0  0  0
   34.0820   39.2010   23.8160 C   0  0  0  0  0  0  0  0  0  0  0  0
   34.6390   37.9750   21.4110 C   0  0  0  0  0  0  0  0  0  0  0  0
   34.9950   37.3140   20.1860 C   0  0  0  0  0  0  0  0  0  0  0  0
   37.6210   36.6590   15.9570 C   0  0  0  0  0  0  0  0  0  0  0  0
   36.2740   36.3610   15.7430 C   0  0  0  0  0  0  0  0  0  0  0  0
   35.5000   35.9060   16.8160 C   0  0  0  0  0  0  0  0  0  0  0  0
   34.3480   37.2130   22.5810 C   0  0  0  0  0  0  0  0  0  0  0  0
   34.5850   39.3920   21.5330 C   0  0  0  0  0  0  0  0  0  0  0  0
   35.0080   35.9620   20.1590 C   0  0  0  0  0  0  0  0  0  0  0  0
   36.1010   35.7530   18.0690 C   0  0  0  0  0  0  0  0  0  0  0  0
   37.9900   35.9380   19.4630 F   0  0  0  0  0  0  0  0  0  0  0  0
   35.3630   35.1390   19.0900 O   0  0  0  0  0  0  0  0  0  0  0  0
   34.3190   40.0150   22.6880 N   0  0  0  0  0  0  0  0  0  0  0  0
   34.4910   33.8940   21.2570 O   0  0  0  0  0  0  0  0  0  0  0  0
   34.3290   35.8050   22.5260 N   0  0  0  0  0  0  0  0  0  0  0  0
   34.0910   37.8180   23.7840 N   0  0  0  0  0  0  0  0  0  0  0  0
   33.7690   39.8350   24.9920 N   0  0  0  0  0  0  0  0  0  0  0  0
   39.3130   36.7650   17.3370 H   0  0  0  0  0  0  0  0  0  0  0  0
   35.2570   37.9280   19.3210 H   0  0  0  0  0  0  0  0  0  0  0  0
   35.8120   36.4920   14.7620 H   0  0  0  0  0  0  0  0  0  0  0  0
   34.4370   35.6900   16.6710 H   0  0  0  0  0  0  0  0  0  0  0  0
   34.7660   40.0240   20.6470 H   0  0  0  0  0  0  0  0  0  0  0  0
   33.8320   40.8710   25.0490 H   0  0  0  0  0  0  0  0  0  0  0  0
   38.3290   37.1500   14.9430 F   0  0  0  0  0  0  0  0  0  0  0  0
   32.5570   39.1650   28.5520 C   0  0  0  0  0  0  0  0  0  0  0  0
   32.5700   39.7700   27.1420 C   0  0  0  0  0  0  0  0  0  0  0  0
   33.6900   39.1200   26.3030 C   0  0  0  0  0  0  0  0  0  0  0  0
   35.0440   39.2240   27.0380 C   0  0  0  0  0  0  0  0  0  0  0  0
   34.9180   38.6510   28.4540 C   0  0  0  0  0  0  0  0  0  0  0  0
   33.8460   39.2770   29.1940 O   0  0  0  0  0  0  0  0  0  0  0  0
   32.2580   38.0910   28.5210 H   0  0  0  0  0  0  0  0  0  0  0  0
   31.9020   39.7550   29.2340 H   0  0  0  0  0  0  0  0  0  0  0  0
   32.7410   40.8720   27.2120 H   0  0  0  0  0  0  0  0  0  0  0  0
   31.5830   39.6010   26.6480 H   0  0  0  0  0  0  0  0  0  0  0  0
   33.4380   38.0390   26.1160 H   0  0  0  0  0  0  0  0  0  0  0  0
   35.8220   38.6540   26.4760 H   0  0  0  0  0  0  0  0  0  0  0  0
   35.3600   40.2950   27.0880 H   0  0  0  0  0  0  0  0  0  0  0  0
   34.7410   37.5510   28.4240 H   0  0  0  0  0  0  0  0  0  0  0  0
   35.8110   38.9080   29.0710 H   0  0  0  0  0  0  0  0  0  0  0  0
   34.0030   35.0000   23.7580 C   0  0  0  0  0  0  0  0  0  0  0  0
   34.4140   33.9650   23.5890 H   0  0  0  0  0  0  0  0  0  0  0  0
   34.5300   35.4800   24.6330 H   0  0  0  0  0  0  0  0  0  0  0  0
   32.4950   34.9470   24.0170 C   0  0  0  0  0  0  0  0  0  0  0  0
   32.1480   35.9780   24.3180 H   0  0  0  0  0  0  0  0  0  0  0  0
   31.9540   34.7160   23.0590 H   0  0  0  0  0  0  0  0  0  0  0  0
   32.0030   33.7820   25.2560 S   0  0  0  0  0  0  0  0  0  0  0  0
   30.6890   34.1670   25.8140 O   0  0  0  0  0  0  0  0  0  0  0  0
   33.0280   33.6650   26.3130 O   0  0  0  0  0  0  0  0  0  0  0  0
   31.8490   32.2720   24.4110 C   0  0  0  0  0  0  0  0  0  0  0  0
   32.8360   31.8440   24.1020 H   0  0  0  0  0  0  0  0  0  0  0  0
   31.3590   31.4840   25.0420 H   0  0  0  0  0  0  0  0  0  0  0  0
   31.2240   32.3600   23.4850 H   0  0  0  0  0  0  0  0  0  0  0  0
  1  3  2  0  0  0  0
  1  7  1  0  0  0  0
  1 21  1  0  0  0  0
  2 12  1  0  0  0  0
  2 17  2  0  0  0  0
  2 18  1  0  0  0  0
  3 13  1  0  0  0  0
  3 14  1  0  0  0  0
  4 16  2  0  0  0  0
  4 19  1  0  0  0  0
  4 20  1  0  0  0  0
  5  6  1  0  0  0  0
  5 10  1  0  0  0  0
  5 11  2  0  0  0  0
  6 12  2  0  0  0  0
  6 22  1  0  0  0  0
  7  8  2  0  0  0  0
  7 27  1  0  0  0  0
  8  9  1  0  0  0  0
  8 23  1  0  0  0  0
  9 13  2  0  0  0  0
  9 24  1  0  0  0  0
 10 18  1  0  0  0  0
 10 19  2  0  0  0  0
 11 16  1  0  0  0  0
 11 25  1  0  0  0  0
 12 15  1  0  0  0  0
 13 15  1  0  0  0  0
 18 43  1  0  0  0  0
 20 26  1  0  0  0  0
 20 30  1  0  0  0  0
 28 29  1  0  0  0  0
 28 33  1  0  0  0  0
 28 34  1  0  0  0  0
 28 35  1  0  0  0  0
 29 30  1  0  0  0  0
 29 36  1  0  0  0  0
 29 37  1  0  0  0  0
 30 31  1  0  0  0  0
 30 38  1  0  0  0  0
 31 32  1  0  0  0  0
 31 39  1  0  0  0  0
 31 40  1  0  0  0  0
 32 33  1  0  0  0  0
 32 41  1  0  0  0  0
 32 42  1  0  0  0  0
 43 44  1  0  0  0  0
 43 45  1  0  0  0  0
 43 46  1  0  0  0  0
 46 47  1  0  0  0  0
 46 48  1  0  0  0  0
 46 49  1  0  0  0  0
 49 50  2  0  0  0  0
 49 51  2  0  0  0  0
 49 52  1  0  0  0  0
 52 53  1  0  0  0  0
 52 54  1  0  0  0  0
 52 55  1  0  0  0  0
M  END
$$$$
