18629-1
 OpenBabel02232411163D
Structure written by MMmdl.
 41 42  0  0  0  0  0  0  0  0999 V2000
   23.1910   10.8940   29.0630 C   0  0  0  0  0  0  0  0  0  0  0  0
   23.4660   11.0980   30.5370 C   0  0  0  0  0  0  0  0  0  0  0  0
   22.2000   11.1600   31.2980 O   0  0  0  0  0  0  0  0  0  0  0  0
   21.5580   10.0180   31.6240 C   0  0  0  0  0  0  0  0  0  0  0  0
   22.0290    8.8300   31.1800 N   0  0  0  0  0  0  0  0  0  0  0  0
   21.2980    7.6930   31.4890 C   0  0  0  0  0  0  0  0  0  0  0  0
   20.1410    7.7290   32.2610 C   0  0  0  0  0  0  0  0  0  0  0  0
   19.6610    8.9800   32.7360 C   0  0  0  0  0  0  0  0  0  0  0  0
   18.5070    9.0270   33.4770 N   0  0  0  0  0  0  0  0  0  0  0  0
   20.3790   10.1750   32.4130 C   0  0  0  0  0  0  0  0  0  0  0  0
   19.9790   11.4740   32.7940 C   0  0  0  0  0  0  0  0  0  0  0  0
   19.7030   12.5670   33.0660 N   0  0  0  0  0  0  0  0  0  0  0  0
   21.8690    6.5390   30.9040 N   0  0  0  0  0  0  0  0  0  0  0  0
   21.3200    5.2320   30.8760 C   0  0  0  0  0  0  0  0  0  0  0  0
   20.2780    4.9530   31.4280 O   0  0  0  0  0  0  0  0  0  0  0  0
   22.1390    4.2570   30.0450 C   0  0  0  0  0  0  0  0  0  0  0  0
   23.4840    3.9800   30.6670 C   0  0  0  0  0  0  0  0  0  0  0  0
   23.6070    2.9780   31.6400 C   0  0  0  0  0  0  0  0  0  0  0  0
   24.8360    2.7530   32.2780 C   0  0  0  0  0  0  0  0  0  0  0  0
   24.9640    1.7230   33.3510 C   0  0  0  0  0  0  0  0  0  0  0  0
   25.9550    3.5180   31.9040 C   0  0  0  0  0  0  0  0  0  0  0  0
   25.8400    4.4890   30.9100 C   0  0  0  0  0  0  0  0  0  0  0  0
   24.6090    4.7260   30.2890 C   0  0  0  0  0  0  0  0  0  0  0  0
   22.8340    9.8570   28.8550 H   0  0  0  0  0  0  0  0  0  0  0  0
   22.4320   11.6160   28.6870 H   0  0  0  0  0  0  0  0  0  0  0  0
   24.1360   11.0540   28.4860 H   0  0  0  0  0  0  0  0  0  0  0  0
   23.8530   12.1230   30.7560 H   0  0  0  0  0  0  0  0  0  0  0  0
   24.1170   10.3020   30.9620 H   0  0  0  0  0  0  0  0  0  0  0  0
   19.5870    6.8180   32.4920 H   0  0  0  0  0  0  0  0  0  0  0  0
   18.0110    8.1590   33.7550 H   0  0  0  0  0  0  0  0  0  0  0  0
   18.1170    9.9140   33.7960 H   0  0  0  0  0  0  0  0  0  0  0  0
   22.7700    6.7010   30.4100 H   0  0  0  0  0  0  0  0  0  0  0  0
   21.5670    3.2980   29.9480 H   0  0  0  0  0  0  0  0  0  0  0  0
   22.2720    4.6860   29.0180 H   0  0  0  0  0  0  0  0  0  0  0  0
   22.7470    2.3590   31.8970 H   0  0  0  0  0  0  0  0  0  0  0  0
   25.1480    2.2170   34.3370 H   0  0  0  0  0  0  0  0  0  0  0  0
   24.0460    1.0930   33.4450 H   0  0  0  0  0  0  0  0  0  0  0  0
   25.8270    1.0410   33.1430 H   0  0  0  0  0  0  0  0  0  0  0  0
   26.9200    3.3510   32.3900 H   0  0  0  0  0  0  0  0  0  0  0  0
   26.7160    5.0730   30.6120 H   0  0  0  0  0  0  0  0  0  0  0  0
   24.5480    5.4880   29.5090 H   0  0  0  0  0  0  0  0  0  0  0  0
  1  2  1  0  0  0  0
  1 24  1  0  0  0  0
  1 25  1  0  0  0  0
  1 26  1  0  0  0  0
  2  3  1  0  0  0  0
  2 27  1  0  0  0  0
  2 28  1  0  0  0  0
  3  4  1  0  0  0  0
  4 10  2  0  0  0  0
  4  5  1  0  0  0  0
  5  6  2  0  0  0  0
  6  7  1  0  0  0  0
  6 13  1  0  0  0  0
  7  8  2  0  0  0  0
  7 29  1  0  0  0  0
  8  9  1  0  0  0  0
  8 10  1  0  0  0  0
  9 30  1  0  0  0  0
  9 31  1  0  0  0  0
 10 11  1  0  0  0  0
 11 12  3  0  0  0  0
 13 14  1  0  0  0  0
 13 32  1  0  0  0  0
 14 15  2  0  0  0  0
 14 16  1  0  0  0  0
 16 17  1  0  0  0  0
 16 33  1  0  0  0  0
 16 34  1  0  0  0  0
 17 23  2  0  0  0  0
 17 18  1  0  0  0  0
 18 19  2  0  0  0  0
 18 35  1  0  0  0  0
 19 20  1  0  0  0  0
 19 21  1  0  0  0  0
 20 36  1  0  0  0  0
 20 37  1  0  0  0  0
 20 38  1  0  0  0  0
 21 22  2  0  0  0  0
 21 39  1  0  0  0  0
 22 23  1  0  0  0  0
 22 40  1  0  0  0  0
 23 41  1  0  0  0  0
M  END
$$$$
