47
 OpenBabel02232411163D
Structure written by MMmdl.
 43 46  0  0  0  0  0  0  0  0999 V2000
    3.9800  -50.1790    5.3770 O   0  0  0  0  0  0  0  0  0  0  0  0
    3.2760  -49.5290    6.1730 C   0  0  0  0  0  0  0  0  0  0  0  0
    3.6680  -48.6980    7.0050 O   0  5  0  0  0  0  0  0  0  0  0  0
    1.7690  -49.8450    6.1240 C   0  0  0  0  0  0  0  0  0  0  0  0
   -0.0650  -51.2150    6.2170 C   0  0  0  0  0  0  0  0  0  0  0  0
   -0.9650  -52.2830    6.3770 C   0  0  0  0  0  0  0  0  0  0  0  0
   -2.3200  -51.9950    6.2840 C   0  0  0  0  0  0  0  0  0  0  0  0
   -2.7780  -50.6820    6.0210 C   0  0  0  0  0  0  0  0  0  0  0  0
   -1.8940  -49.6250    5.8570 C   0  0  0  0  0  0  0  0  0  0  0  0
   -0.5150  -49.8700    5.9620 C   0  0  0  0  0  0  0  0  0  0  0  0
    0.6630  -49.0300    5.9150 C   0  0  0  0  0  0  0  0  0  0  0  0
    0.5940  -47.5510    5.7770 C   0  0  0  0  0  0  0  0  0  0  0  0
    0.2170  -46.9500    7.1470 C   0  0  0  0  0  0  0  0  0  0  0  0
   -0.3380  -45.5380    7.0620 C   0  0  0  0  0  0  0  0  0  0  0  0
   -1.5060  -45.5020    6.1740 O   0  0  0  0  0  0  0  0  0  0  0  0
   -2.7500  -45.4360    6.7260 C   0  0  0  0  0  0  0  0  0  0  0  0
   -4.9620  -44.5190    6.3270 C   0  0  0  0  0  0  0  0  0  0  0  0
   -3.6880  -44.7310    5.8890 C   0  0  0  0  0  0  0  0  0  0  0  0
   -0.6210  -53.2970    6.5790 H   0  0  0  0  0  0  0  0  0  0  0  0
   -3.0570  -52.7860    6.4250 H   0  0  0  0  0  0  0  0  0  0  0  0
   -3.8530  -50.5070    5.9530 H   0  0  0  0  0  0  0  0  0  0  0  0
   -2.2720  -48.6200    5.6620 H   0  0  0  0  0  0  0  0  0  0  0  0
   -0.2090  -47.2770    5.0430 H   0  0  0  0  0  0  0  0  0  0  0  0
    1.5560  -47.1180    5.4210 H   0  0  0  0  0  0  0  0  0  0  0  0
    1.1190  -46.9310    7.8020 H   0  0  0  0  0  0  0  0  0  0  0  0
   -0.5600  -47.6020    7.6180 H   0  0  0  0  0  0  0  0  0  0  0  0
    0.3310  -44.8370    6.5120 H   0  0  0  0  0  0  0  0  0  0  0  0
   -0.6280  -45.1380    8.0580 H   0  0  0  0  0  0  0  0  0  0  0  0
   -3.3550  -44.3650    4.9190 H   0  0  0  0  0  0  0  0  0  0  0  0
   -3.1170  -45.9690    7.9430 C   0  0  0  0  0  0  0  0  0  0  0  0
   -5.6900  -43.9710    5.7210 H   0  0  0  0  0  0  0  0  0  0  0  0
   -4.4490  -45.7760    8.4000 C   0  0  0  0  0  0  0  0  0  0  0  0
   -5.3710  -45.0280    7.6100 C   0  0  0  0  0  0  0  0  0  0  0  0
   -6.6710  -44.7860    8.0260 N   0  0  0  0  0  0  0  0  0  0  0  0
   -7.0530  -45.2820    9.2010 C   0  0  0  0  0  0  0  0  0  0  0  0
   -6.1920  -46.0460   10.0520 C   0  0  0  0  0  0  0  0  0  0  0  0
   -4.9060  -46.2990    9.6510 C   0  0  0  0  0  0  0  0  0  0  0  0
   -8.0860  -45.1040    9.5110 H   0  0  0  0  0  0  0  0  0  0  0  0
   -6.5850  -46.4230   10.9930 H   0  0  0  0  0  0  0  0  0  0  0  0
   -4.2280  -46.8980   10.2640 H   0  0  0  0  0  0  0  0  0  0  0  0
   -2.4330  -46.5450    8.5630 H   0  0  0  0  0  0  0  0  0  0  0  0
    1.3360  -51.1750    6.2990 N   0  0  0  0  0  0  0  0  0  0  0  0
    1.9090  -51.9960    6.4640 H   0  0  0  0  0  0  0  0  0  0  0  0
  1  2  2  0  0  0  0
  2  3  1  0  0  0  0
  2  4  1  0  0  0  0
  4 11  2  0  0  0  0
  4 42  1  0  0  0  0
  5  6  2  0  0  0  0
  5 10  1  0  0  0  0
  5 42  1  0  0  0  0
  6  7  1  0  0  0  0
  6 19  1  0  0  0  0
  7  8  2  0  0  0  0
  7 20  1  0  0  0  0
  8  9  1  0  0  0  0
  8 21  1  0  0  0  0
  9 10  2  0  0  0  0
  9 22  1  0  0  0  0
 10 11  1  0  0  0  0
 11 12  1  0  0  0  0
 12 23  1  0  0  0  0
 12 24  1  0  0  0  0
 12 13  1  0  0  0  0
 13 14  1  0  0  0  0
 13 25  1  0  0  0  0
 13 26  1  0  0  0  0
 14 15  1  0  0  0  0
 14 27  1  0  0  0  0
 14 28  1  0  0  0  0
 15 16  1  0  0  0  0
 16 18  2  0  0  0  0
 16 30  1  0  0  0  0
 17 18  1  0  0  0  0
 17 31  1  0  0  0  0
 17 33  2  0  0  0  0
 18 29  1  0  0  0  0
 30 32  2  0  0  0  0
 30 41  1  0  0  0  0
 32 33  1  0  0  0  0
 32 37  1  0  0  0  0
 33 34  1  0  0  0  0
 34 35  2  0  0  0  0
 35 36  1  0  0  0  0
 35 38  1  0  0  0  0
 36 37  2  0  0  0  0
 36 39  1  0  0  0  0
 37 40  1  0  0  0  0
 42 43  1  0  0  0  0
M  CHG  1   3  -1
M  END
$$$$
