p38a_3flw
 OpenBabel02232411163D
Structure written by MMmdl.
 49 51  0  0  0  0  0  0  0  0999 V2000
   38.2510   36.5230   17.1870 C   0  0  0  0  0  0  0  0  0  0  0  0
   37.6050   36.6830   15.9530 C   0  0  0  0  0  0  0  0  0  0  0  0
   33.8740   39.8660   27.5200 C   0  0  0  0  0  0  0  0  0  0  0  0
   35.3910   39.6940   27.6760 C   0  0  0  0  0  0  0  0  0  0  0  0
   31.8020   39.4600   26.1510 C   0  0  0  0  0  0  0  0  0  0  0  0
   34.0770   35.1040   23.7830 C   0  0  0  0  0  0  0  0  0  0  0  0
   37.9940   35.9420   19.4530 F   0  0  0  0  0  0  0  0  0  0  0  0
   37.4610   36.0840   18.2460 C   0  0  0  0  0  0  0  0  0  0  0  0
   38.3100   37.1660   14.9330 F   0  0  0  0  0  0  0  0  0  0  0  0
   36.2520   36.4010   15.7500 C   0  0  0  0  0  0  0  0  0  0  0  0
   35.4820   35.9520   16.8280 C   0  0  0  0  0  0  0  0  0  0  0  0
   36.0920   35.7860   18.0750 C   0  0  0  0  0  0  0  0  0  0  0  0
   35.3570   35.1850   19.1070 O   0  0  0  0  0  0  0  0  0  0  0  0
   35.0290   36.0160   20.1770 C   0  0  0  0  0  0  0  0  0  0  0  0
   35.0610   37.3670   20.2070 C   0  0  0  0  0  0  0  0  0  0  0  0
   34.7300   38.0390   21.4340 C   0  0  0  0  0  0  0  0  0  0  0  0
   34.6970   39.4520   21.5590 C   0  0  0  0  0  0  0  0  0  0  0  0
   34.4390   40.0780   22.7190 N   0  0  0  0  0  0  0  0  0  0  0  0
   34.5890   35.1640   21.3150 C   0  0  0  0  0  0  0  0  0  0  0  0
   34.4110   33.9670   21.2770 O   0  0  0  0  0  0  0  0  0  0  0  0
   34.3670   35.8820   22.5460 N   0  0  0  0  0  0  0  0  0  0  0  0
   34.4250   37.2800   22.6040 C   0  0  0  0  0  0  0  0  0  0  0  0
   34.1560   37.8920   23.8050 N   0  0  0  0  0  0  0  0  0  0  0  0
   34.1910   39.2720   23.8430 C   0  0  0  0  0  0  0  0  0  0  0  0
   34.0200   39.9090   25.0590 N   0  0  0  0  0  0  0  0  0  0  0  0
   33.3330   39.2450   26.2110 C   0  0  0  0  0  0  0  0  0  0  0  0
   31.0950   38.9730   24.8800 C   0  0  0  0  0  0  0  0  0  0  0  0
   31.2520   37.5680   24.6480 O   0  0  0  0  0  0  0  0  0  0  0  0
   35.7960   39.9180   29.0390 O   0  0  0  0  0  0  0  0  0  0  0  0
   39.3090   36.7670   17.3190 H   0  0  0  0  0  0  0  0  0  0  0  0
   33.3540   39.3680   28.3760 H   0  0  0  0  0  0  0  0  0  0  0  0
   33.6160   40.9540   27.5540 H   0  0  0  0  0  0  0  0  0  0  0  0
   35.7050   38.6410   27.4930 H   0  0  0  0  0  0  0  0  0  0  0  0
   35.9340   40.4120   27.0220 H   0  0  0  0  0  0  0  0  0  0  0  0
   31.3560   38.9400   27.0360 H   0  0  0  0  0  0  0  0  0  0  0  0
   31.5990   40.5560   26.2500 H   0  0  0  0  0  0  0  0  0  0  0  0
   34.6340   35.5420   24.6570 H   0  0  0  0  0  0  0  0  0  0  0  0
   32.9780   35.1320   24.0050 H   0  0  0  0  0  0  0  0  0  0  0  0
   34.3990   34.0370   23.6510 H   0  0  0  0  0  0  0  0  0  0  0  0
   35.7840   36.5420   14.7720 H   0  0  0  0  0  0  0  0  0  0  0  0
   34.4150   35.7490   16.6890 H   0  0  0  0  0  0  0  0  0  0  0  0
   35.3390   37.9770   19.3440 H   0  0  0  0  0  0  0  0  0  0  0  0
   34.8690   40.0850   20.6740 H   0  0  0  0  0  0  0  0  0  0  0  0
   33.9240   40.9460   25.0660 H   0  0  0  0  0  0  0  0  0  0  0  0
   33.5700   38.1480   26.2020 H   0  0  0  0  0  0  0  0  0  0  0  0
   29.9910   39.0920   24.9960 H   0  0  0  0  0  0  0  0  0  0  0  0
   31.4690   39.5250   23.9900 H   0  0  0  0  0  0  0  0  0  0  0  0
   32.2170   37.3800   24.5470 H   0  0  0  0  0  0  0  0  0  0  0  0
   35.4940   40.8180   29.3250 H   0  0  0  0  0  0  0  0  0  0  0  0
  1  2  2  0  0  0  0
  1  8  1  0  0  0  0
  1 30  1  0  0  0  0
  2  9  1  0  0  0  0
  2 10  1  0  0  0  0
  3  4  1  0  0  0  0
  3 26  1  0  0  0  0
  3 31  1  0  0  0  0
  3 32  1  0  0  0  0
  4 29  1  0  0  0  0
  4 33  1  0  0  0  0
  4 34  1  0  0  0  0
  5 26  1  0  0  0  0
  5 27  1  0  0  0  0
  5 35  1  0  0  0  0
  5 36  1  0  0  0  0
  6 21  1  0  0  0  0
  6 37  1  0  0  0  0
  6 38  1  0  0  0  0
  6 39  1  0  0  0  0
  7  8  1  0  0  0  0
  8 12  2  0  0  0  0
 10 11  2  0  0  0  0
 10 40  1  0  0  0  0
 11 12  1  0  0  0  0
 11 41  1  0  0  0  0
 12 13  1  0  0  0  0
 13 14  1  0  0  0  0
 14 15  2  0  0  0  0
 14 19  1  0  0  0  0
 15 16  1  0  0  0  0
 15 42  1  0  0  0  0
 16 17  2  0  0  0  0
 16 22  1  0  0  0  0
 17 18  1  0  0  0  0
 17 43  1  0  0  0  0
 18 24  2  0  0  0  0
 19 20  2  0  0  0  0
 19 21  1  0  0  0  0
 21 22  1  0  0  0  0
 22 23  2  0  0  0  0
 23 24  1  0  0  0  0
 24 25  1  0  0  0  0
 25 26  1  0  0  0  0
 25 44  1  0  0  0  0
 26 45  1  0  0  0  0
 27 28  1  0  0  0  0
 27 46  1  0  0  0  0
 27 47  1  0  0  0  0
 28 48  1  0  0  0  0
 29 49  1  0  0  0  0
M  END
$$$$
