p38a_2aa
 OpenBabel02232411163D
Structure written by MMmdl.
 43 45  0  0  0  0  0  0  0  0999 V2000
   38.2850   36.5370   17.1820 C   0  0  0  0  0  0  0  0  0  0  0  0
   34.4750   35.0680   21.2210 C   0  0  0  0  0  0  0  0  0  0  0  0
   37.5040   36.0840   18.2420 C   0  0  0  0  0  0  0  0  0  0  0  0
   33.7880   39.1300   23.7560 C   0  0  0  0  0  0  0  0  0  0  0  0
   32.7280   39.0370   26.0140 C   0  0  0  0  0  0  0  0  0  0  0  0
   34.5900   37.9440   21.4010 C   0  0  0  0  0  0  0  0  0  0  0  0
   35.0460   37.2930   20.2020 C   0  0  0  0  0  0  0  0  0  0  0  0
   37.6370   36.6850   15.9490 C   0  0  0  0  0  0  0  0  0  0  0  0
   36.2900   36.3770   15.7450 C   0  0  0  0  0  0  0  0  0  0  0  0
   35.5300   35.9100   16.8220 C   0  0  0  0  0  0  0  0  0  0  0  0
   34.1300   37.1670   22.5050 C   0  0  0  0  0  0  0  0  0  0  0  0
   34.5790   39.3560   21.5600 C   0  0  0  0  0  0  0  0  0  0  0  0
   35.0110   35.9420   20.1430 C   0  0  0  0  0  0  0  0  0  0  0  0
   36.1430   35.7540   18.0680 C   0  0  0  0  0  0  0  0  0  0  0  0
   33.5750   34.9840   23.5760 C   0  0  0  0  0  0  0  0  0  0  0  0
   38.0370   35.9580   19.4500 F   0  0  0  0  0  0  0  0  0  0  0  0
   35.4310   35.1230   19.0960 O   0  0  0  0  0  0  0  0  0  0  0  0
   34.1950   39.9600   22.6960 N   0  0  0  0  0  0  0  0  0  0  0  0
   34.3610   33.8630   21.1580 O   0  0  0  0  0  0  0  0  0  0  0  0
   34.0740   35.7670   22.4110 N   0  0  0  0  0  0  0  0  0  0  0  0
   33.7280   37.7560   23.6800 N   0  0  0  0  0  0  0  0  0  0  0  0
   33.5330   39.7420   24.9790 N   0  0  0  0  0  0  0  0  0  0  0  0
   39.3390   36.8000   17.3140 H   0  0  0  0  0  0  0  0  0  0  0  0
   32.6530   39.9670   27.2550 C   0  0  0  0  0  0  0  0  0  0  0  0
   35.4120   37.9150   19.3820 H   0  0  0  0  0  0  0  0  0  0  0  0
   35.8190   36.5100   14.7680 H   0  0  0  0  0  0  0  0  0  0  0  0
   34.4670   35.6850   16.6830 H   0  0  0  0  0  0  0  0  0  0  0  0
   34.8860   40.0030   20.7220 H   0  0  0  0  0  0  0  0  0  0  0  0
   34.1690   35.2370   24.4960 H   0  0  0  0  0  0  0  0  0  0  0  0
   32.4970   35.2310   23.7720 H   0  0  0  0  0  0  0  0  0  0  0  0
   33.6690   33.8850   23.3750 H   0  0  0  0  0  0  0  0  0  0  0  0
   33.3990   40.7750   24.9790 H   0  0  0  0  0  0  0  0  0  0  0  0
   38.3320   37.1830   14.9290 F   0  0  0  0  0  0  0  0  0  0  0  0
   31.3060   38.6400   25.5310 C   0  0  0  0  0  0  0  0  0  0  0  0
   30.8340   39.5410   24.5270 O   0  0  0  0  0  0  0  0  0  0  0  0
   30.3020   40.2710   24.9530 H   0  0  0  0  0  0  0  0  0  0  0  0
   31.3370   37.6550   25.0070 H   0  0  0  0  0  0  0  0  0  0  0  0
   30.6020   38.6230   26.3950 H   0  0  0  0  0  0  0  0  0  0  0  0
   31.7910   39.3840   28.2390 O   0  0  0  0  0  0  0  0  0  0  0  0
   33.6650   40.1450   27.6860 H   0  0  0  0  0  0  0  0  0  0  0  0
   32.1430   40.9260   27.0130 H   0  0  0  0  0  0  0  0  0  0  0  0
   32.2320   38.5910   28.6410 H   0  0  0  0  0  0  0  0  0  0  0  0
   33.2740   38.0920   26.3060 H   0  0  0  0  0  0  0  0  0  0  0  0
  1  3  2  0  0  0  0
  1  8  1  0  0  0  0
  1 23  1  0  0  0  0
  2 13  1  0  0  0  0
  2 19  2  0  0  0  0
  2 20  1  0  0  0  0
  3 14  1  0  0  0  0
  3 16  1  0  0  0  0
  4 18  2  0  0  0  0
  4 21  1  0  0  0  0
  4 22  1  0  0  0  0
  5 22  1  0  0  0  0
  5 24  1  0  0  0  0
  5 34  1  0  0  0  0
  5 43  1  0  0  0  0
  6  7  1  0  0  0  0
  6 11  1  0  0  0  0
  6 12  2  0  0  0  0
  7 13  2  0  0  0  0
  7 25  1  0  0  0  0
  8  9  2  0  0  0  0
  8 33  1  0  0  0  0
  9 10  1  0  0  0  0
  9 26  1  0  0  0  0
 10 14  2  0  0  0  0
 10 27  1  0  0  0  0
 11 20  1  0  0  0  0
 11 21  2  0  0  0  0
 12 18  1  0  0  0  0
 12 28  1  0  0  0  0
 13 17  1  0  0  0  0
 14 17  1  0  0  0  0
 15 20  1  0  0  0  0
 15 29  1  0  0  0  0
 15 30  1  0  0  0  0
 15 31  1  0  0  0  0
 22 32  1  0  0  0  0
 24 39  1  0  0  0  0
 24 40  1  0  0  0  0
 24 41  1  0  0  0  0
 34 35  1  0  0  0  0
 34 37  1  0  0  0  0
 34 38  1  0  0  0  0
 35 36  1  0  0  0  0
 39 42  1  0  0  0  0
M  END
$$$$
