p38a_2bb
 OpenBabel02232411163D
Structure written by MMmdl.
 44 46  0  0  0  0  0  0  0  0999 V2000
   36.3690   35.9750   15.8520 C   0  0  0  0  0  0  0  0  0  0  0  0
   34.6490   34.9670   21.4740 C   0  0  0  0  0  0  0  0  0  0  0  0
   35.6260   35.5370   16.9430 C   0  0  0  0  0  0  0  0  0  0  0  0
   34.4590   38.9610   24.1770 C   0  0  0  0  0  0  0  0  0  0  0  0
   34.8540   38.9770   26.6620 C   0  0  0  0  0  0  0  0  0  0  0  0
   34.8210   37.8290   21.6870 C   0  0  0  0  0  0  0  0  0  0  0  0
   35.0950   37.2020   20.4190 C   0  0  0  0  0  0  0  0  0  0  0  0
   37.6550   36.4590   16.1250 C   0  0  0  0  0  0  0  0  0  0  0  0
   38.2170   36.4750   17.4050 C   0  0  0  0  0  0  0  0  0  0  0  0
   37.4370   36.0630   18.4910 C   0  0  0  0  0  0  0  0  0  0  0  0
   34.6600   37.0250   22.8560 C   0  0  0  0  0  0  0  0  0  0  0  0
   34.7190   39.2330   21.8600 C   0  0  0  0  0  0  0  0  0  0  0  0
   35.0560   35.8510   20.3460 C   0  0  0  0  0  0  0  0  0  0  0  0
   36.1390   35.6010   18.2550 C   0  0  0  0  0  0  0  0  0  0  0  0
   34.4580   34.8200   23.9970 C   0  0  0  0  0  0  0  0  0  0  0  0
   34.4110   35.0320   16.7740 F   0  0  0  0  0  0  0  0  0  0  0  0
   35.3050   35.0500   19.2360 O   0  0  0  0  0  0  0  0  0  0  0  0
   34.5280   39.8080   23.0610 N   0  0  0  0  0  0  0  0  0  0  0  0
   34.3670   33.7950   21.3840 O   0  0  0  0  0  0  0  0  0  0  0  0
   34.6070   35.6290   22.7540 N   0  0  0  0  0  0  0  0  0  0  0  0
   34.5240   37.5890   24.1010 N   0  0  0  0  0  0  0  0  0  0  0  0
   34.2240   39.5420   25.4240 N   0  0  0  0  0  0  0  0  0  0  0  0
   35.9620   35.9690   14.8380 H   0  0  0  0  0  0  0  0  0  0  0  0
   34.8820   39.8170   27.4120 H   0  0  0  0  0  0  0  0  0  0  0  0
   35.3450   37.8440   19.5710 H   0  0  0  0  0  0  0  0  0  0  0  0
   39.2390   36.8330   17.5610 H   0  0  0  0  0  0  0  0  0  0  0  0
   37.8390   36.1310   19.5040 H   0  0  0  0  0  0  0  0  0  0  0  0
   34.7990   39.9080   20.9890 H   0  0  0  0  0  0  0  0  0  0  0  0
   35.2480   35.1160   24.7400 H   0  0  0  0  0  0  0  0  0  0  0  0
   33.4530   35.0120   24.4620 H   0  0  0  0  0  0  0  0  0  0  0  0
   34.5620   33.7290   23.7640 H   0  0  0  0  0  0  0  0  0  0  0  0
   34.1050   40.5770   25.4430 H   0  0  0  0  0  0  0  0  0  0  0  0
   38.3600   36.9630   15.1140 F   0  0  0  0  0  0  0  0  0  0  0  0
   34.1040   37.7580   27.2080 C   0  0  0  0  0  0  0  0  0  0  0  0
   35.9140   38.6750   26.4310 H   0  0  0  0  0  0  0  0  0  0  0  0
   33.5240   37.2900   26.3580 H   0  0  0  0  0  0  0  0  0  0  0  0
   34.8590   36.9750   27.4970 H   0  0  0  0  0  0  0  0  0  0  0  0
   31.8490   39.2140   27.9720 C   0  0  0  0  0  0  0  0  0  0  0  0
   33.0160   38.0610   28.5550 S   0  0  0  0  0  0  0  0  0  0  0  0
   32.3390   36.7900   28.9310 O   0  0  0  0  0  0  0  0  0  0  0  0
   33.7460   38.6030   29.7290 O   0  0  0  0  0  0  0  0  0  0  0  0
   32.2800   40.2480   27.9070 H   0  0  0  0  0  0  0  0  0  0  0  0
   31.5050   38.9570   26.9340 H   0  0  0  0  0  0  0  0  0  0  0  0
   30.9450   39.2570   28.6290 H   0  0  0  0  0  0  0  0  0  0  0  0
  1  3  2  0  0  0  0
  1  8  1  0  0  0  0
  1 23  1  0  0  0  0
  2 13  1  0  0  0  0
  2 19  2  0  0  0  0
  2 20  1  0  0  0  0
  3 14  1  0  0  0  0
  3 16  1  0  0  0  0
  4 18  2  0  0  0  0
  4 21  1  0  0  0  0
  4 22  1  0  0  0  0
  5 22  1  0  0  0  0
  5 24  1  0  0  0  0
  5 34  1  0  0  0  0
  5 35  1  0  0  0  0
  6  7  1  0  0  0  0
  6 11  1  0  0  0  0
  6 12  2  0  0  0  0
  7 13  2  0  0  0  0
  7 25  1  0  0  0  0
  8  9  2  0  0  0  0
  8 33  1  0  0  0  0
  9 10  1  0  0  0  0
  9 26  1  0  0  0  0
 10 14  2  0  0  0  0
 10 27  1  0  0  0  0
 11 20  1  0  0  0  0
 11 21  2  0  0  0  0
 12 18  1  0  0  0  0
 12 28  1  0  0  0  0
 13 17  1  0  0  0  0
 14 17  1  0  0  0  0
 15 20  1  0  0  0  0
 15 29  1  0  0  0  0
 15 30  1  0  0  0  0
 15 31  1  0  0  0  0
 22 32  1  0  0  0  0
 34 36  1  0  0  0  0
 34 37  1  0  0  0  0
 34 39  1  0  0  0  0
 38 39  1  0  0  0  0
 38 42  1  0  0  0  0
 38 43  1  0  0  0  0
 38 44  1  0  0  0  0
 39 40  2  0  0  0  0
 39 41  2  0  0  0  0
M  END
$$$$
