18639-1
 OpenBabel02232411163D
Structure written by MMmdl.
 48 49  0  0  0  0  0  0  0  0999 V2000
   24.4390   10.8760   30.7490 C   0  0  0  0  0  0  0  0  0  0  0  0
   23.1170   11.2440   30.1070 C   0  0  0  0  0  0  0  0  0  0  0  0
   22.0390   11.3090   31.1170 O   0  0  0  0  0  0  0  0  0  0  0  0
   21.4530   10.1610   31.5280 C   0  0  0  0  0  0  0  0  0  0  0  0
   21.9330    8.9720   31.0960 N   0  0  0  0  0  0  0  0  0  0  0  0
   21.2400    7.8300   31.4670 C   0  0  0  0  0  0  0  0  0  0  0  0
   20.1040    7.8630   32.2670 C   0  0  0  0  0  0  0  0  0  0  0  0
   19.6150    9.1150   32.7270 C   0  0  0  0  0  0  0  0  0  0  0  0
   18.4790    9.1540   33.4950 N   0  0  0  0  0  0  0  0  0  0  0  0
   20.3050   10.3150   32.3620 C   0  0  0  0  0  0  0  0  0  0  0  0
   19.8950   11.6130   32.7300 C   0  0  0  0  0  0  0  0  0  0  0  0
   19.6090   12.7070   32.9920 N   0  0  0  0  0  0  0  0  0  0  0  0
   21.8320    6.6650   30.9230 N   0  0  0  0  0  0  0  0  0  0  0  0
   21.2650    5.3750   30.8670 C   0  0  0  0  0  0  0  0  0  0  0  0
   20.1910    5.1020   31.3590 O   0  0  0  0  0  0  0  0  0  0  0  0
   22.0990    4.3880   30.0570 C   0  0  0  0  0  0  0  0  0  0  0  0
   23.4730    4.1360   30.6060 C   0  0  0  0  0  0  0  0  0  0  0  0
   24.5570    5.0100   30.2800 C   0  0  0  0  0  0  0  0  0  0  0  0
   24.1820    6.0610   29.4530 O   0  0  0  0  0  0  0  0  0  0  0  0
   25.1310    7.1490   29.2710 C   0  0  0  0  0  0  0  0  0  0  0  0
   25.8440    4.7770   30.7380 C   0  0  0  0  0  0  0  0  0  0  0  0
   26.0940    3.6620   31.5680 C   0  0  0  0  0  0  0  0  0  0  0  0
   27.4540    3.4200   32.0570 N   0  3  0  0  0  0  0  0  0  0  0  0
   27.6080    2.6060   32.9550 O   0  5  0  0  0  0  0  0  0  0  0  0
   28.3790    4.0380   31.5450 O   0  0  0  0  0  0  0  0  0  0  0  0
   25.0330    2.7870   31.8980 C   0  0  0  0  0  0  0  0  0  0  0  0
   23.7310    3.0320   31.4020 C   0  0  0  0  0  0  0  0  0  0  0  0
   25.3980    1.7490   32.7020 O   0  0  0  0  0  0  0  0  0  0  0  0
   24.4110    0.7040   32.9500 C   0  0  0  0  0  0  0  0  0  0  0  0
   25.2330   10.8380   29.9610 H   0  0  0  0  0  0  0  0  0  0  0  0
   24.7340   11.6250   31.5130 H   0  0  0  0  0  0  0  0  0  0  0  0
   24.3870    9.8690   31.2260 H   0  0  0  0  0  0  0  0  0  0  0  0
   23.0990   12.3030   29.7530 H   0  0  0  0  0  0  0  0  0  0  0  0
   22.8270   10.5310   29.3030 H   0  0  0  0  0  0  0  0  0  0  0  0
   19.5720    6.9460   32.5280 H   0  0  0  0  0  0  0  0  0  0  0  0
   17.9810    8.2810   33.7550 H   0  0  0  0  0  0  0  0  0  0  0  0
   18.0720   10.0390   33.7970 H   0  0  0  0  0  0  0  0  0  0  0  0
   22.7400    6.8250   30.4160 H   0  0  0  0  0  0  0  0  0  0  0  0
   21.5370    3.4170   30.0000 H   0  0  0  0  0  0  0  0  0  0  0  0
   22.1970    4.8010   29.0130 H   0  0  0  0  0  0  0  0  0  0  0  0
   25.4950    7.5230   30.2510 H   0  0  0  0  0  0  0  0  0  0  0  0
   25.9570    6.8000   28.6150 H   0  0  0  0  0  0  0  0  0  0  0  0
   24.4940    7.9100   28.7620 H   0  0  0  0  0  0  0  0  0  0  0  0
   26.6780    5.4320   30.4570 H   0  0  0  0  0  0  0  0  0  0  0  0
   22.9230    2.3360   31.6430 H   0  0  0  0  0  0  0  0  0  0  0  0
   25.0090   -0.0260   33.5470 H   0  0  0  0  0  0  0  0  0  0  0  0
   23.5660    1.1100   33.5470 H   0  0  0  0  0  0  0  0  0  0  0  0
   24.0790    0.2560   31.9880 H   0  0  0  0  0  0  0  0  0  0  0  0
  1  2  1  0  0  0  0
  1 30  1  0  0  0  0
  1 31  1  0  0  0  0
  1 32  1  0  0  0  0
  2  3  1  0  0  0  0
  2 33  1  0  0  0  0
  2 34  1  0  0  0  0
  3  4  1  0  0  0  0
  4 10  2  0  0  0  0
  4  5  1  0  0  0  0
  5  6  2  0  0  0  0
  6  7  1  0  0  0  0
  6 13  1  0  0  0  0
  7  8  2  0  0  0  0
  7 35  1  0  0  0  0
  8  9  1  0  0  0  0
  8 10  1  0  0  0  0
  9 36  1  0  0  0  0
  9 37  1  0  0  0  0
 10 11  1  0  0  0  0
 11 12  3  0  0  0  0
 13 14  1  0  0  0  0
 13 38  1  0  0  0  0
 14 15  2  0  0  0  0
 14 16  1  0  0  0  0
 16 17  1  0  0  0  0
 16 39  1  0  0  0  0
 16 40  1  0  0  0  0
 17 27  2  0  0  0  0
 17 18  1  0  0  0  0
 18 19  1  0  0  0  0
 18 21  2  0  0  0  0
 19 20  1  0  0  0  0
 20 41  1  0  0  0  0
 20 42  1  0  0  0  0
 20 43  1  0  0  0  0
 21 22  1  0  0  0  0
 21 44  1  0  0  0  0
 22 23  1  0  0  0  0
 22 26  2  0  0  0  0
 23 24  1  0  0  0  0
 23 25  2  0  0  0  0
 26 27  1  0  0  0  0
 26 28  1  0  0  0  0
 27 45  1  0  0  0  0
 28 29  1  0  0  0  0
 29 46  1  0  0  0  0
 29 47  1  0  0  0  0
 29 48  1  0  0  0  0
M  CHG  2  23   1  24  -1
M  END
$$$$
