ejm_55
 OpenBabel02232411173D
Structure written by MMmdl.
 33 34  0  0  0  0  0  0  0  0999 V2000
   -1.5710   21.5300  -27.5920 C   0  0  0  0  0  0  0  0  0  0  0  0
   -1.0810   22.6070  -28.3350 C   0  0  0  0  0  0  0  0  0  0  0  0
   -1.8760   23.1640  -29.3380 C   0  0  0  0  0  0  0  0  0  0  0  0
   -3.1530   22.6700  -29.6320 C   0  0  0  0  0  0  0  0  0  0  0  0
   -3.6220   21.5920  -28.8640 C   0  0  0  0  0  0  0  0  0  0  0  0
   -2.8480   21.0240  -27.8510 C   0  0  0  0  0  0  0  0  0  0  0  0
   -5.1780   20.9500  -29.1830 Cl  0  0  0  0  0  0  0  0  0  0  0  0
   -4.0110   23.1880  -30.7490 C   0  0  0  0  0  0  0  0  0  0  0  0
   -4.4270   22.4730  -31.6340 O   0  0  0  0  0  0  0  0  0  0  0  0
   -4.3110   24.5640  -30.6440 N   0  0  0  0  0  0  0  0  0  0  0  0
   -5.1670   25.3110  -31.4980 C   0  0  0  0  0  0  0  0  0  0  0  0
   -5.8490   24.7560  -32.5940 C   0  0  0  0  0  0  0  0  0  0  0  0
   -6.7180   25.5750  -33.3270 C   0  0  0  0  0  0  0  0  0  0  0  0
   -6.9290   26.8860  -33.0430 N   0  0  0  0  0  0  0  0  0  0  0  0
   -6.2390   27.4160  -31.9740 C   0  0  0  0  0  0  0  0  0  0  0  0
   -5.3460   26.6770  -31.1880 C   0  0  0  0  0  0  0  0  0  0  0  0
   -6.5440   28.7820  -31.7060 N   0  0  0  0  0  0  0  0  0  0  0  0
   -5.7320   29.6590  -30.9730 C   0  0  0  0  0  0  0  0  0  0  0  0
   -4.7680   29.3990  -30.2890 O   0  0  0  0  0  0  0  0  0  0  0  0
   -1.2410   24.4980  -30.2080 Cl  0  0  0  0  0  0  0  0  0  0  0  0
   -0.9530   21.0860  -26.8040 H   0  0  0  0  0  0  0  0  0  0  0  0
   -0.0860   23.0060  -28.1150 H   0  0  0  0  0  0  0  0  0  0  0  0
   -3.2240   20.1950  -27.2480 H   0  0  0  0  0  0  0  0  0  0  0  0
   -3.8950   25.0870  -29.8510 H   0  0  0  0  0  0  0  0  0  0  0  0
   -5.7340   23.7050  -32.8720 H   0  0  0  0  0  0  0  0  0  0  0  0
   -7.2810   25.1660  -34.1840 H   0  0  0  0  0  0  0  0  0  0  0  0
   -4.8070   27.1400  -30.3570 H   0  0  0  0  0  0  0  0  0  0  0  0
   -7.4360   29.1560  -32.1130 H   0  0  0  0  0  0  0  0  0  0  0  0
   -5.7350   31.9810  -30.2910 C   0  0  0  0  0  0  0  0  0  0  0  0
   -6.4820   32.7960  -30.4510 H   0  0  0  0  0  0  0  0  0  0  0  0
   -5.7330   31.6440  -29.2330 H   0  0  0  0  0  0  0  0  0  0  0  0
   -6.2440   30.9340  -31.1660 O   0  0  0  0  0  0  0  0  0  0  0  0
   -4.7160   32.2700  -30.6260 H   0  0  0  0  0  0  0  0  0  0  0  0
  1  2  2  0  0  0  0
  1  6  1  0  0  0  0
  1 21  1  0  0  0  0
  2  3  1  0  0  0  0
  2 22  1  0  0  0  0
  3  4  2  0  0  0  0
  3 20  1  0  0  0  0
  4  5  1  0  0  0  0
  4  8  1  0  0  0  0
  5  6  2  0  0  0  0
  5  7  1  0  0  0  0
  6 23  1  0  0  0  0
  8  9  2  0  0  0  0
  8 10  1  0  0  0  0
 10 11  1  0  0  0  0
 10 24  1  0  0  0  0
 11 12  2  0  0  0  0
 11 16  1  0  0  0  0
 12 13  1  0  0  0  0
 12 25  1  0  0  0  0
 13 14  2  0  0  0  0
 13 26  1  0  0  0  0
 14 15  1  0  0  0  0
 15 16  2  0  0  0  0
 15 17  1  0  0  0  0
 16 27  1  0  0  0  0
 17 18  1  0  0  0  0
 17 28  1  0  0  0  0
 18 19  2  0  0  0  0
 18 32  1  0  0  0  0
 29 30  1  0  0  0  0
 29 31  1  0  0  0  0
 29 32  1  0  0  0  0
 29 33  1  0  0  0  0
M  END
$$$$
