20667(2qbp)
 OpenBabel02232411173D
Structure written by MMmdl.
 60 63  0  0  0  0  0  0  0  0999 V2000
   42.5190   17.9670   12.6570 O   0  0  0  0  0  0  0  0  0  0  0  0
   41.3710   17.7140   13.0390 C   0  0  0  0  0  0  0  0  0  0  0  0
   40.3410   18.3650   12.7610 O   0  5  0  0  0  0  0  0  0  0  0  0
   41.1390   16.4750   13.9540 C   0  0  0  0  0  0  0  0  0  0  0  0
   42.4680   15.8640   13.9380 O   0  0  0  0  0  0  0  0  0  0  0  0
   42.6590   14.9020   14.8800 C   0  0  0  0  0  0  0  0  0  0  0  0
   42.0710   13.5800   14.7920 C   0  0  0  0  0  0  0  0  0  0  0  0
   40.9020   13.1680   13.3480 Br  0  0  0  0  0  0  0  0  0  0  0  0
   42.4560   12.7070   15.7750 C   0  0  0  0  0  0  0  0  0  0  0  0
   42.0440   11.3490   16.0730 C   0  0  0  0  0  0  0  0  0  0  0  0
   42.8210   10.4900   16.8910 C   0  0  0  0  0  0  0  0  0  0  0  0
   42.3670    9.2100   17.1890 C   0  0  0  0  0  0  0  0  0  0  0  0
   41.1570    8.7110   16.6790 C   0  0  0  0  0  0  0  0  0  0  0  0
   40.3850    9.5420   15.8600 C   0  0  0  0  0  0  0  0  0  0  0  0
   39.0890    9.2180   15.3470 N   0  0  0  0  0  0  0  0  0  0  0  0
   38.5030    7.8640   15.4620 C   0  0  0  0  0  0  0  0  0  0  0  0
   36.9930    7.9550   15.1140 C   0  0  0  0  0  0  0  0  0  0  0  0
   36.7320    8.1230   13.6080 C   0  0  0  0  0  0  0  0  0  0  0  0
   37.3680    7.0560   12.7890 N   0  0  0  0  0  0  0  0  0  0  0  0
   36.4020    5.7450   12.3030 S   0  0  0  0  0  0  0  0  0  0  0  0
   37.1410    4.9740   11.3100 O   0  0  0  0  0  0  0  0  0  0  0  0
   35.1920    6.3650   11.7330 O   0  0  0  0  0  0  0  0  0  0  0  0
   35.9910    4.7510   13.6940 C   0  0  0  0  0  0  0  0  0  0  0  0
   35.7330    3.3400   13.2770 C   0  0  0  0  0  0  0  0  0  0  0  0
   34.4340    2.9180   12.9520 C   0  0  0  0  0  0  0  0  0  0  0  0
   34.2050    1.5980   12.5520 C   0  0  0  0  0  0  0  0  0  0  0  0
   35.2650    0.6900   12.4720 C   0  0  0  0  0  0  0  0  0  0  0  0
   36.5590    1.1050   12.8030 C   0  0  0  0  0  0  0  0  0  0  0  0
   36.7950    2.4210   13.2090 C   0  0  0  0  0  0  0  0  0  0  0  0
   38.8140    6.8720   13.0880 C   0  0  0  0  0  0  0  0  0  0  0  0
   39.1560    6.7660   14.5830 C   0  0  0  0  0  0  0  0  0  0  0  0
   40.8330   10.8530   15.5760 C   0  0  0  0  0  0  0  0  0  0  0  0
   43.6150   13.5340   16.8000 S   0  0  0  0  0  0  0  0  0  0  0  0
   43.5410   15.0430   15.9200 C   0  0  0  0  0  0  0  0  0  0  0  0
   44.3730   16.2520   16.3630 C   0  0  0  0  0  0  0  0  0  0  0  0
   44.9900   16.0980   17.4420 O   0  0  0  0  0  0  0  0  0  0  0  0
   44.4150   17.2430   15.6350 O   0  5  0  0  0  0  0  0  0  0  0  0
   40.3960   15.7800   13.5140 H   0  0  0  0  0  0  0  0  0  0  0  0
   40.8450   16.7560   14.9850 H   0  0  0  0  0  0  0  0  0  0  0  0
   43.7830   10.8070   17.2980 H   0  0  0  0  0  0  0  0  0  0  0  0
   42.9570    8.5570   17.8370 H   0  0  0  0  0  0  0  0  0  0  0  0
   40.8440    7.6990   16.9240 H   0  0  0  0  0  0  0  0  0  0  0  0
   38.8970    9.6360   14.4210 H   0  0  0  0  0  0  0  0  0  0  0  0
   38.5920    7.5310   16.5330 H   0  0  0  0  0  0  0  0  0  0  0  0
   36.5080    7.0210   15.4870 H   0  0  0  0  0  0  0  0  0  0  0  0
   36.5380    8.8110   15.6660 H   0  0  0  0  0  0  0  0  0  0  0  0
   35.6280    8.1310   13.4220 H   0  0  0  0  0  0  0  0  0  0  0  0
   37.1630    9.1020   13.2580 H   0  0  0  0  0  0  0  0  0  0  0  0
   36.8130    4.7730   14.4700 H   0  0  0  0  0  0  0  0  0  0  0  0
   35.0970    5.1700   14.2360 H   0  0  0  0  0  0  0  0  0  0  0  0
   33.5890    3.6080   13.0170 H   0  0  0  0  0  0  0  0  0  0  0  0
   33.1900    1.2720   12.3060 H   0  0  0  0  0  0  0  0  0  0  0  0
   35.0810   -0.3410   12.1610 H   0  0  0  0  0  0  0  0  0  0  0  0
   37.3880    0.3920   12.7520 H   0  0  0  0  0  0  0  0  0  0  0  0
   37.8110    2.7240   13.4840 H   0  0  0  0  0  0  0  0  0  0  0  0
   39.1990    5.9560   12.5710 H   0  0  0  0  0  0  0  0  0  0  0  0
   39.3400    7.7770   12.6800 H   0  0  0  0  0  0  0  0  0  0  0  0
   40.2670    6.8140   14.6930 H   0  0  0  0  0  0  0  0  0  0  0  0
   38.8310    5.7770   14.9840 H   0  0  0  0  0  0  0  0  0  0  0  0
   40.1800   11.4770   14.9670 H   0  0  0  0  0  0  0  0  0  0  0  0
  1  2  2  0  0  0  0
  2  3  1  0  0  0  0
  2  4  1  0  0  0  0
  4  5  1  0  0  0  0
  4 38  1  0  0  0  0
  4 39  1  0  0  0  0
  5  6  1  0  0  0  0
  6 34  2  0  0  0  0
  6  7  1  0  0  0  0
  7  8  1  0  0  0  0
  7  9  2  0  0  0  0
  9 10  1  0  0  0  0
  9 33  1  0  0  0  0
 10 32  2  0  0  0  0
 10 11  1  0  0  0  0
 11 12  2  0  0  0  0
 11 40  1  0  0  0  0
 12 13  1  0  0  0  0
 12 41  1  0  0  0  0
 13 14  2  0  0  0  0
 13 42  1  0  0  0  0
 14 15  1  0  0  0  0
 14 32  1  0  0  0  0
 15 16  1  0  0  0  0
 15 43  1  0  0  0  0
 16 31  1  0  0  0  0
 16 17  1  0  0  0  0
 16 44  1  0  0  0  0
 17 18  1  0  0  0  0
 17 45  1  0  0  0  0
 17 46  1  0  0  0  0
 18 19  1  0  0  0  0
 18 47  1  0  0  0  0
 18 48  1  0  0  0  0
 19 20  1  0  0  0  0
 19 30  1  0  0  0  0
 20 21  2  0  0  0  0
 20 22  2  0  0  0  0
 20 23  1  0  0  0  0
 23 24  1  0  0  0  0
 23 49  1  0  0  0  0
 23 50  1  0  0  0  0
 24 29  2  0  0  0  0
 24 25  1  0  0  0  0
 25 26  2  0  0  0  0
 25 51  1  0  0  0  0
 26 27  1  0  0  0  0
 26 52  1  0  0  0  0
 27 28  2  0  0  0  0
 27 53  1  0  0  0  0
 28 29  1  0  0  0  0
 28 54  1  0  0  0  0
 29 55  1  0  0  0  0
 30 31  1  0  0  0  0
 30 56  1  0  0  0  0
 30 57  1  0  0  0  0
 31 58  1  0  0  0  0
 31 59  1  0  0  0  0
 32 60  1  0  0  0  0
 33 34  1  0  0  0  0
 34 35  1  0  0  0  0
 35 36  2  0  0  0  0
 35 37  1  0  0  0  0
M  CHG  2   3  -1  37  -1
M  END
$$$$
