p38a_2i
 OpenBabel02232411163D
Structure written by MMmdl.
 48 51  0  0  0  0  0  0  0  0999 V2000
   32.4250   39.7870   27.6160 C   0  0  0  0  0  0  0  0  0  0  0  0
   33.2320   40.7970   28.4390 C   0  0  0  0  0  0  0  0  0  0  0  0
   35.3170   39.7110   27.9430 C   0  0  0  0  0  0  0  0  0  0  0  0
   34.6310   38.5900   27.1610 C   0  0  0  0  0  0  0  0  0  0  0  0
   34.2080   34.2680   16.7390 C   0  0  0  0  0  0  0  0  0  0  0  0
   34.4450   40.2280   28.9760 O   0  0  0  0  0  0  0  0  0  0  0  0
   34.7890   35.5300   21.3580 C   0  0  0  0  0  0  0  0  0  0  0  0
   34.6510   34.7580   17.9710 C   0  0  0  0  0  0  0  0  0  0  0  0
   33.7530   39.3490   24.1300 C   0  0  0  0  0  0  0  0  0  0  0  0
   33.2700   39.0260   26.5750 C   0  0  0  0  0  0  0  0  0  0  0  0
   34.5580   38.3450   21.6980 C   0  0  0  0  0  0  0  0  0  0  0  0
   35.2190   37.8100   20.5440 C   0  0  0  0  0  0  0  0  0  0  0  0
   35.0280   34.4310   15.6220 C   0  0  0  0  0  0  0  0  0  0  0  0
   36.2580   35.0830   15.7460 C   0  0  0  0  0  0  0  0  0  0  0  0
   36.6720   35.5800   16.9840 C   0  0  0  0  0  0  0  0  0  0  0  0
   34.2040   37.4770   22.7770 C   0  0  0  0  0  0  0  0  0  0  0  0
   34.3440   39.7340   21.8910 C   0  0  0  0  0  0  0  0  0  0  0  0
   35.4410   36.4750   20.4350 C   0  0  0  0  0  0  0  0  0  0  0  0
   35.8780   35.4220   18.1330 C   0  0  0  0  0  0  0  0  0  0  0  0
   33.8530   35.1940   23.7010 C   0  0  0  0  0  0  0  0  0  0  0  0
   33.8620   34.5490   19.0230 F   0  0  0  0  0  0  0  0  0  0  0  0
   36.4220   35.9180   19.4440 C   0  0  0  0  0  0  0  0  0  0  0  0
   33.9670   40.2540   23.0660 N   0  0  0  0  0  0  0  0  0  0  0  0
   34.6050   34.3440   21.1710 O   0  0  0  0  0  0  0  0  0  0  0  0
   34.2760   36.0970   22.5960 N   0  0  0  0  0  0  0  0  0  0  0  0
   33.8010   37.9750   23.9930 N   0  0  0  0  0  0  0  0  0  0  0  0
   33.4300   39.8810   25.3550 N   0  0  0  0  0  0  0  0  0  0  0  0
   31.9660   39.0280   28.2990 H   0  0  0  0  0  0  0  0  0  0  0  0
   31.5930   40.3250   27.0990 H   0  0  0  0  0  0  0  0  0  0  0  0
   33.5030   41.6840   27.8250 H   0  0  0  0  0  0  0  0  0  0  0  0
   32.6780   41.0990   29.3590 H   0  0  0  0  0  0  0  0  0  0  0  0
   36.1810   39.3280   28.5320 H   0  0  0  0  0  0  0  0  0  0  0  0
   35.6120   40.5500   27.2720 H   0  0  0  0  0  0  0  0  0  0  0  0
   35.3090   38.2340   26.3480 H   0  0  0  0  0  0  0  0  0  0  0  0
   34.4410   37.7190   27.8390 H   0  0  0  0  0  0  0  0  0  0  0  0
   33.2300   33.7950   16.6280 H   0  0  0  0  0  0  0  0  0  0  0  0
   32.7010   38.0980   26.2670 H   0  0  0  0  0  0  0  0  0  0  0  0
   35.5870   38.5220   19.7970 H   0  0  0  0  0  0  0  0  0  0  0  0
   36.8950   35.2280   14.8740 H   0  0  0  0  0  0  0  0  0  0  0  0
   37.6290   36.1080   17.0460 H   0  0  0  0  0  0  0  0  0  0  0  0
   34.4900   40.4280   21.0480 H   0  0  0  0  0  0  0  0  0  0  0  0
   34.4710   35.3960   24.6180 H   0  0  0  0  0  0  0  0  0  0  0  0
   32.7740   35.3710   23.9560 H   0  0  0  0  0  0  0  0  0  0  0  0
   33.9880   34.1240   23.3960 H   0  0  0  0  0  0  0  0  0  0  0  0
   33.5020   40.9080   25.4940 H   0  0  0  0  0  0  0  0  0  0  0  0
   34.6940   34.0490   14.6580 H   0  0  0  0  0  0  0  0  0  0  0  0
   37.1790   36.7290   19.2300 H   0  0  0  0  0  0  0  0  0  0  0  0
   36.9810   35.0730   19.9260 H   0  0  0  0  0  0  0  0  0  0  0  0
  1  2  1  0  0  0  0
  1 10  1  0  0  0  0
  1 28  1  0  0  0  0
  1 29  1  0  0  0  0
  2  6  1  0  0  0  0
  2 30  1  0  0  0  0
  2 31  1  0  0  0  0
  3  4  1  0  0  0  0
  3  6  1  0  0  0  0
  3 32  1  0  0  0  0
  3 33  1  0  0  0  0
  4 10  1  0  0  0  0
  4 34  1  0  0  0  0
  4 35  1  0  0  0  0
  5  8  2  0  0  0  0
  5 13  1  0  0  0  0
  5 36  1  0  0  0  0
  7 18  1  0  0  0  0
  7 24  2  0  0  0  0
  7 25  1  0  0  0  0
  8 19  1  0  0  0  0
  8 21  1  0  0  0  0
  9 23  2  0  0  0  0
  9 26  1  0  0  0  0
  9 27  1  0  0  0  0
 10 27  1  0  0  0  0
 10 37  1  0  0  0  0
 11 12  1  0  0  0  0
 11 16  1  0  0  0  0
 11 17  2  0  0  0  0
 12 18  2  0  0  0  0
 12 38  1  0  0  0  0
 13 14  2  0  0  0  0
 13 46  1  0  0  0  0
 14 15  1  0  0  0  0
 14 39  1  0  0  0  0
 15 19  2  0  0  0  0
 15 40  1  0  0  0  0
 16 25  1  0  0  0  0
 16 26  2  0  0  0  0
 17 23  1  0  0  0  0
 17 41  1  0  0  0  0
 18 22  1  0  0  0  0
 19 22  1  0  0  0  0
 20 25  1  0  0  0  0
 20 42  1  0  0  0  0
 20 43  1  0  0  0  0
 20 44  1  0  0  0  0
 22 47  1  0  0  0  0
 22 48  1  0  0  0  0
 27 45  1  0  0  0  0
M  END
$$$$
