p38a_3flw
 OpenBabel02232411163D
Structure written by MMmdl.
 49 51  0  0  0  0  0  0  0  0999 V2000
   38.2550   36.5450   17.1900 C   0  0  0  0  0  0  0  0  0  0  0  0
   37.6270   36.7270   15.9500 C   0  0  0  0  0  0  0  0  0  0  0  0
   33.4420   37.5670   26.4560 C   0  0  0  0  0  0  0  0  0  0  0  0
   34.9720   37.6120   26.5350 C   0  0  0  0  0  0  0  0  0  0  0  0
   32.9840   39.9050   27.3860 C   0  0  0  0  0  0  0  0  0  0  0  0
   32.9470   34.9670   23.2450 C   0  0  0  0  0  0  0  0  0  0  0  0
   37.9590   35.9350   19.4450 F   0  0  0  0  0  0  0  0  0  0  0  0
   37.4460   36.0990   18.2330 C   0  0  0  0  0  0  0  0  0  0  0  0
   38.3510   37.2130   14.9440 F   0  0  0  0  0  0  0  0  0  0  0  0
   36.2740   36.4650   15.7240 C   0  0  0  0  0  0  0  0  0  0  0  0
   35.4870   36.0040   16.7850 C   0  0  0  0  0  0  0  0  0  0  0  0
   36.0790   35.8120   18.0360 C   0  0  0  0  0  0  0  0  0  0  0  0
   35.3440   35.1730   19.0410 O   0  0  0  0  0  0  0  0  0  0  0  0
   34.8690   35.9790   20.0750 C   0  0  0  0  0  0  0  0  0  0  0  0
   34.9470   37.3240   20.1900 C   0  0  0  0  0  0  0  0  0  0  0  0
   34.4190   37.9450   21.3750 C   0  0  0  0  0  0  0  0  0  0  0  0
   34.5220   39.3380   21.6320 C   0  0  0  0  0  0  0  0  0  0  0  0
   34.1350   39.8990   22.7860 N   0  0  0  0  0  0  0  0  0  0  0  0
   34.2270   35.0870   21.0780 C   0  0  0  0  0  0  0  0  0  0  0  0
   34.1690   33.8780   21.0060 O   0  0  0  0  0  0  0  0  0  0  0  0
   33.6430   35.7690   22.2000 N   0  0  0  0  0  0  0  0  0  0  0  0
   33.7830   37.1560   22.3800 C   0  0  0  0  0  0  0  0  0  0  0  0
   33.3100   37.7120   23.5420 N   0  0  0  0  0  0  0  0  0  0  0  0
   33.5630   39.0490   23.7610 C   0  0  0  0  0  0  0  0  0  0  0  0
   33.2390   39.6370   24.9640 N   0  0  0  0  0  0  0  0  0  0  0  0
   32.7680   38.9280   26.2030 C   0  0  0  0  0  0  0  0  0  0  0  0
   32.3300   39.4320   28.6900 C   0  0  0  0  0  0  0  0  0  0  0  0
   32.4500   40.4370   29.7140 O   0  0  0  0  0  0  0  0  0  0  0  0
   35.5070   36.4630   25.8470 O   0  0  0  0  0  0  0  0  0  0  0  0
   39.3130   36.7780   17.3380 H   0  0  0  0  0  0  0  0  0  0  0  0
   33.1540   36.8530   25.6380 H   0  0  0  0  0  0  0  0  0  0  0  0
   33.0220   37.1460   27.4030 H   0  0  0  0  0  0  0  0  0  0  0  0
   35.3920   38.4700   25.9630 H   0  0  0  0  0  0  0  0  0  0  0  0
   35.3140   37.6220   27.5910 H   0  0  0  0  0  0  0  0  0  0  0  0
   34.0770   40.0590   27.5580 H   0  0  0  0  0  0  0  0  0  0  0  0
   32.5400   40.8950   27.1240 H   0  0  0  0  0  0  0  0  0  0  0  0
   31.9050   35.3610   23.3910 H   0  0  0  0  0  0  0  0  0  0  0  0
   32.8910   33.8910   22.9350 H   0  0  0  0  0  0  0  0  0  0  0  0
   33.4970   35.0400   24.2220 H   0  0  0  0  0  0  0  0  0  0  0  0
   35.8220   36.6260   14.7430 H   0  0  0  0  0  0  0  0  0  0  0  0
   34.4210   35.8110   16.6280 H   0  0  0  0  0  0  0  0  0  0  0  0
   35.4020   37.9640   19.4310 H   0  0  0  0  0  0  0  0  0  0  0  0
   34.9460   40.0090   20.8650 H   0  0  0  0  0  0  0  0  0  0  0  0
   33.4500   40.6490   25.0870 H   0  0  0  0  0  0  0  0  0  0  0  0
   31.6610   38.7490   26.0740 H   0  0  0  0  0  0  0  0  0  0  0  0
   31.2480   39.2100   28.5430 H   0  0  0  0  0  0  0  0  0  0  0  0
   32.8670   38.5630   29.1370 H   0  0  0  0  0  0  0  0  0  0  0  0
   32.2190   41.3370   29.3240 H   0  0  0  0  0  0  0  0  0  0  0  0
   35.7660   35.7700   26.5150 H   0  0  0  0  0  0  0  0  0  0  0  0
  1  2  2  0  0  0  0
  1  8  1  0  0  0  0
  1 30  1  0  0  0  0
  2  9  1  0  0  0  0
  2 10  1  0  0  0  0
  3  4  1  0  0  0  0
  3 26  1  0  0  0  0
  3 31  1  0  0  0  0
  3 32  1  0  0  0  0
  4 29  1  0  0  0  0
  4 33  1  0  0  0  0
  4 34  1  0  0  0  0
  5 26  1  0  0  0  0
  5 27  1  0  0  0  0
  5 35  1  0  0  0  0
  5 36  1  0  0  0  0
  6 21  1  0  0  0  0
  6 37  1  0  0  0  0
  6 38  1  0  0  0  0
  6 39  1  0  0  0  0
  7  8  1  0  0  0  0
  8 12  2  0  0  0  0
 10 11  2  0  0  0  0
 10 40  1  0  0  0  0
 11 12  1  0  0  0  0
 11 41  1  0  0  0  0
 12 13  1  0  0  0  0
 13 14  1  0  0  0  0
 14 15  2  0  0  0  0
 14 19  1  0  0  0  0
 15 16  1  0  0  0  0
 15 42  1  0  0  0  0
 16 17  2  0  0  0  0
 16 22  1  0  0  0  0
 17 18  1  0  0  0  0
 17 43  1  0  0  0  0
 18 24  2  0  0  0  0
 19 20  2  0  0  0  0
 19 21  1  0  0  0  0
 21 22  1  0  0  0  0
 22 23  2  0  0  0  0
 23 24  1  0  0  0  0
 24 25  1  0  0  0  0
 25 26  1  0  0  0  0
 25 44  1  0  0  0  0
 26 45  1  0  0  0  0
 27 28  1  0  0  0  0
 27 46  1  0  0  0  0
 27 47  1  0  0  0  0
 28 48  1  0  0  0  0
 29 49  1  0  0  0  0
M  END
$$$$
