20667(2qbp)
 OpenBabel02232411173D
Structure written by MMmdl.
 60 63  0  0  0  0  0  0  0  0999 V2000
   42.3900   18.0170   12.6690 O   0  0  0  0  0  0  0  0  0  0  0  0
   41.2490   17.7290   13.0460 C   0  0  0  0  0  0  0  0  0  0  0  0
   40.1980   18.3480   12.7740 O   0  5  0  0  0  0  0  0  0  0  0  0
   41.0560   16.4740   13.9490 C   0  0  0  0  0  0  0  0  0  0  0  0
   42.4060   15.9100   13.9340 O   0  0  0  0  0  0  0  0  0  0  0  0
   42.6230   14.9560   14.8770 C   0  0  0  0  0  0  0  0  0  0  0  0
   42.0340   13.6340   14.8260 C   0  0  0  0  0  0  0  0  0  0  0  0
   40.8560   13.1310   13.4150 Br  0  0  0  0  0  0  0  0  0  0  0  0
   42.4350   12.7890   15.8270 C   0  0  0  0  0  0  0  0  0  0  0  0
   42.0030   11.4350   16.1110 C   0  0  0  0  0  0  0  0  0  0  0  0
   42.8600   10.4610   16.6710 C   0  0  0  0  0  0  0  0  0  0  0  0
   42.4020    9.1590   16.8490 C   0  0  0  0  0  0  0  0  0  0  0  0
   41.1220    8.7580   16.4330 C   0  0  0  0  0  0  0  0  0  0  0  0
   40.2590    9.7180   15.8900 C   0  0  0  0  0  0  0  0  0  0  0  0
   38.9010    9.4680   15.4990 N   0  0  0  0  0  0  0  0  0  0  0  0
   38.4690    8.1160   15.0490 C   0  0  0  0  0  0  0  0  0  0  0  0
   36.9280    8.1740   14.8720 C   0  0  0  0  0  0  0  0  0  0  0  0
   36.3790    6.8420   14.3320 C   0  0  0  0  0  0  0  0  0  0  0  0
   37.0420    6.4880   13.0370 N   0  0  0  0  0  0  0  0  0  0  0  0
   36.2480    5.2980   12.1040 S   0  0  0  0  0  0  0  0  0  0  0  0
   37.1310    4.9010   11.0120 O   0  0  0  0  0  0  0  0  0  0  0  0
   35.0170    5.9130   11.5940 O   0  0  0  0  0  0  0  0  0  0  0  0
   35.9320    3.9310   13.1710 C   0  0  0  0  0  0  0  0  0  0  0  0
   35.5640    2.7010   12.4070 C   0  0  0  0  0  0  0  0  0  0  0  0
   34.2490    2.2140   12.4450 C   0  0  0  0  0  0  0  0  0  0  0  0
   33.9040    1.0680   11.7230 C   0  0  0  0  0  0  0  0  0  0  0  0
   34.8610    0.4070   10.9500 C   0  0  0  0  0  0  0  0  0  0  0  0
   36.1780    0.8780   10.9250 C   0  0  0  0  0  0  0  0  0  0  0  0
   36.5350    2.0100   11.6600 C   0  0  0  0  0  0  0  0  0  0  0  0
   38.5230    6.3540   13.2140 C   0  0  0  0  0  0  0  0  0  0  0  0
   39.1060    7.6910   13.7010 C   0  0  0  0  0  0  0  0  0  0  0  0
   40.6900   11.0610   15.7960 C   0  0  0  0  0  0  0  0  0  0  0  0
   43.6170   13.6210   16.8090 S   0  0  0  0  0  0  0  0  0  0  0  0
   43.5270   15.1110   15.8970 C   0  0  0  0  0  0  0  0  0  0  0  0
   44.3720   16.3200   16.3050 C   0  0  0  0  0  0  0  0  0  0  0  0
   45.0050   16.1800   17.3770 O   0  0  0  0  0  0  0  0  0  0  0  0
   44.4060   17.3000   15.5620 O   0  5  0  0  0  0  0  0  0  0  0  0
   40.3400   15.7570   13.4970 H   0  0  0  0  0  0  0  0  0  0  0  0
   40.7480   16.7360   14.9810 H   0  0  0  0  0  0  0  0  0  0  0  0
   43.8830   10.7030   16.9620 H   0  0  0  0  0  0  0  0  0  0  0  0
   43.0540    8.4120   17.3050 H   0  0  0  0  0  0  0  0  0  0  0  0
   40.8240    7.7170   16.5350 H   0  0  0  0  0  0  0  0  0  0  0  0
   38.5630   10.1750   14.8030 H   0  0  0  0  0  0  0  0  0  0  0  0
   38.7200    7.3590   15.8350 H   0  0  0  0  0  0  0  0  0  0  0  0
   36.4520    8.3670   15.8630 H   0  0  0  0  0  0  0  0  0  0  0  0
   36.6600    8.9930   14.1640 H   0  0  0  0  0  0  0  0  0  0  0  0
   36.5560    6.0410   15.1060 H   0  0  0  0  0  0  0  0  0  0  0  0
   35.2780    6.9530   14.1640 H   0  0  0  0  0  0  0  0  0  0  0  0
   36.8390    3.7100   13.8100 H   0  0  0  0  0  0  0  0  0  0  0  0
   35.1310    4.1810   13.9240 H   0  0  0  0  0  0  0  0  0  0  0  0
   33.4820    2.7190   13.0380 H   0  0  0  0  0  0  0  0  0  0  0  0
   32.8770    0.6940   11.7590 H   0  0  0  0  0  0  0  0  0  0  0  0
   34.5770   -0.4720   10.3660 H   0  0  0  0  0  0  0  0  0  0  0  0
   36.9280    0.3530   10.3260 H   0  0  0  0  0  0  0  0  0  0  0  0
   37.5760    2.3530   11.6510 H   0  0  0  0  0  0  0  0  0  0  0  0
   38.7630    5.5520   13.9680 H   0  0  0  0  0  0  0  0  0  0  0  0
   38.9880    6.0850   12.2320 H   0  0  0  0  0  0  0  0  0  0  0  0
   38.8940    8.4790   12.9450 H   0  0  0  0  0  0  0  0  0  0  0  0
   40.2050    7.5680   13.8320 H   0  0  0  0  0  0  0  0  0  0  0  0
   39.9650   11.8090   15.4760 H   0  0  0  0  0  0  0  0  0  0  0  0
  1  2  2  0  0  0  0
  2  3  1  0  0  0  0
  2  4  1  0  0  0  0
  4  5  1  0  0  0  0
  4 38  1  0  0  0  0
  4 39  1  0  0  0  0
  5  6  1  0  0  0  0
  6 34  2  0  0  0  0
  6  7  1  0  0  0  0
  7  8  1  0  0  0  0
  7  9  2  0  0  0  0
  9 10  1  0  0  0  0
  9 33  1  0  0  0  0
 10 32  2  0  0  0  0
 10 11  1  0  0  0  0
 11 12  2  0  0  0  0
 11 40  1  0  0  0  0
 12 13  1  0  0  0  0
 12 41  1  0  0  0  0
 13 14  2  0  0  0  0
 13 42  1  0  0  0  0
 14 15  1  0  0  0  0
 14 32  1  0  0  0  0
 15 16  1  0  0  0  0
 15 43  1  0  0  0  0
 16 31  1  0  0  0  0
 16 17  1  0  0  0  0
 16 44  1  0  0  0  0
 17 18  1  0  0  0  0
 17 45  1  0  0  0  0
 17 46  1  0  0  0  0
 18 19  1  0  0  0  0
 18 47  1  0  0  0  0
 18 48  1  0  0  0  0
 19 20  1  0  0  0  0
 19 30  1  0  0  0  0
 20 21  2  0  0  0  0
 20 22  2  0  0  0  0
 20 23  1  0  0  0  0
 23 24  1  0  0  0  0
 23 49  1  0  0  0  0
 23 50  1  0  0  0  0
 24 29  2  0  0  0  0
 24 25  1  0  0  0  0
 25 26  2  0  0  0  0
 25 51  1  0  0  0  0
 26 27  1  0  0  0  0
 26 52  1  0  0  0  0
 27 28  2  0  0  0  0
 27 53  1  0  0  0  0
 28 29  1  0  0  0  0
 28 54  1  0  0  0  0
 29 55  1  0  0  0  0
 30 31  1  0  0  0  0
 30 56  1  0  0  0  0
 30 57  1  0  0  0  0
 31 58  1  0  0  0  0
 31 59  1  0  0  0  0
 32 60  1  0  0  0  0
 33 34  1  0  0  0  0
 34 35  1  0  0  0  0
 35 36  2  0  0  0  0
 35 37  1  0  0  0  0
M  CHG  2   3  -1  37  -1
M  END
$$$$
