p38a_2g
 OpenBabel02232411163D
Structure written by MMmdl.
 46 49  0  0  0  0  0  0  0  0999 V2000
   34.0770   38.3880   26.7670 C   0  0  0  0  0  0  0  0  0  0  0  0
   33.4800   37.9000   28.0920 C   0  0  0  0  0  0  0  0  0  0  0  0
   31.2200   38.2500   27.3050 C   0  0  0  0  0  0  0  0  0  0  0  0
   31.7110   38.7660   25.9460 C   0  0  0  0  0  0  0  0  0  0  0  0
   38.3680   36.4140   17.3130 C   0  0  0  0  0  0  0  0  0  0  0  0
   32.1620   37.3340   27.9070 O   0  0  0  0  0  0  0  0  0  0  0  0
   34.4990   35.1430   21.1980 C   0  0  0  0  0  0  0  0  0  0  0  0
   37.4830   36.0200   18.3140 C   0  0  0  0  0  0  0  0  0  0  0  0
   33.9130   39.2610   23.6730 C   0  0  0  0  0  0  0  0  0  0  0  0
   33.1100   39.3930   26.1130 C   0  0  0  0  0  0  0  0  0  0  0  0
   34.5850   38.0200   21.3000 C   0  0  0  0  0  0  0  0  0  0  0  0
   34.9740   37.3460   20.0920 C   0  0  0  0  0  0  0  0  0  0  0  0
   37.8750   36.5410   16.0080 C   0  0  0  0  0  0  0  0  0  0  0  0
   36.5350   36.2710   15.7200 C   0  0  0  0  0  0  0  0  0  0  0  0
   35.6470   35.8680   16.7260 C   0  0  0  0  0  0  0  0  0  0  0  0
   34.2130   37.2700   22.4550 C   0  0  0  0  0  0  0  0  0  0  0  0
   34.5570   39.4350   21.4180 C   0  0  0  0  0  0  0  0  0  0  0  0
   34.9510   35.9940   20.0660 C   0  0  0  0  0  0  0  0  0  0  0  0
   36.1320   35.7350   18.0270 C   0  0  0  0  0  0  0  0  0  0  0  0
   33.8170   35.1020   23.6270 C   0  0  0  0  0  0  0  0  0  0  0  0
   37.9040   35.9040   19.5690 F   0  0  0  0  0  0  0  0  0  0  0  0
   35.2860   35.1710   18.9920 O   0  0  0  0  0  0  0  0  0  0  0  0
   34.2400   40.0650   22.5560 N   0  0  0  0  0  0  0  0  0  0  0  0
   34.3840   33.9370   21.1710 O   0  0  0  0  0  0  0  0  0  0  0  0
   34.1790   35.8670   22.4000 N   0  0  0  0  0  0  0  0  0  0  0  0
   33.8770   37.8830   23.6390 N   0  0  0  0  0  0  0  0  0  0  0  0
   33.6470   39.9450   24.8340 N   0  0  0  0  0  0  0  0  0  0  0  0
   35.0620   38.8790   26.9600 H   0  0  0  0  0  0  0  0  0  0  0  0
   34.2450   37.5150   26.0890 H   0  0  0  0  0  0  0  0  0  0  0  0
   34.0540   37.0350   28.4990 H   0  0  0  0  0  0  0  0  0  0  0  0
   33.4150   38.7300   28.8340 H   0  0  0  0  0  0  0  0  0  0  0  0
   31.0390   39.0910   28.0120 H   0  0  0  0  0  0  0  0  0  0  0  0
   30.3150   37.6110   27.1930 H   0  0  0  0  0  0  0  0  0  0  0  0
   31.7530   37.9180   25.2200 H   0  0  0  0  0  0  0  0  0  0  0  0
   30.9960   39.5280   25.5540 H   0  0  0  0  0  0  0  0  0  0  0  0
   39.4110   36.6500   17.5340 H   0  0  0  0  0  0  0  0  0  0  0  0
   33.0220   40.3000   26.7850 H   0  0  0  0  0  0  0  0  0  0  0  0
   35.2840   37.9520   19.2380 H   0  0  0  0  0  0  0  0  0  0  0  0
   36.1610   36.3910   14.7020 H   0  0  0  0  0  0  0  0  0  0  0  0
   34.5970   35.6830   16.4870 H   0  0  0  0  0  0  0  0  0  0  0  0
   34.7930   40.0640   20.5440 H   0  0  0  0  0  0  0  0  0  0  0  0
   34.5560   35.3190   24.4440 H   0  0  0  0  0  0  0  0  0  0  0  0
   32.7950   35.4080   23.9800 H   0  0  0  0  0  0  0  0  0  0  0  0
   33.8170   34.0020   23.4120 H   0  0  0  0  0  0  0  0  0  0  0  0
   33.6770   40.9840   24.8190 H   0  0  0  0  0  0  0  0  0  0  0  0
   38.5390   36.8790   15.2120 H   0  0  0  0  0  0  0  0  0  0  0  0
  1  2  1  0  0  0  0
  1 10  1  0  0  0  0
  1 28  1  0  0  0  0
  1 29  1  0  0  0  0
  2  6  1  0  0  0  0
  2 30  1  0  0  0  0
  2 31  1  0  0  0  0
  3  4  1  0  0  0  0
  3  6  1  0  0  0  0
  3 32  1  0  0  0  0
  3 33  1  0  0  0  0
  4 10  1  0  0  0  0
  4 34  1  0  0  0  0
  4 35  1  0  0  0  0
  5  8  2  0  0  0  0
  5 13  1  0  0  0  0
  5 36  1  0  0  0  0
  7 18  1  0  0  0  0
  7 24  2  0  0  0  0
  7 25  1  0  0  0  0
  8 19  1  0  0  0  0
  8 21  1  0  0  0  0
  9 23  2  0  0  0  0
  9 26  1  0  0  0  0
  9 27  1  0  0  0  0
 10 27  1  0  0  0  0
 10 37  1  0  0  0  0
 11 12  1  0  0  0  0
 11 16  1  0  0  0  0
 11 17  2  0  0  0  0
 12 18  2  0  0  0  0
 12 38  1  0  0  0  0
 13 14  2  0  0  0  0
 13 46  1  0  0  0  0
 14 15  1  0  0  0  0
 14 39  1  0  0  0  0
 15 19  2  0  0  0  0
 15 40  1  0  0  0  0
 16 25  1  0  0  0  0
 16 26  2  0  0  0  0
 17 23  1  0  0  0  0
 17 41  1  0  0  0  0
 18 22  1  0  0  0  0
 19 22  1  0  0  0  0
 20 25  1  0  0  0  0
 20 42  1  0  0  0  0
 20 43  1  0  0  0  0
 20 44  1  0  0  0  0
 27 45  1  0  0  0  0
M  END
$$$$
