p38a_2r
 OpenBabel02232411163D
Structure written by MMmdl.
 56 59  0  0  0  0  0  0  0  0999 V2000
   36.3080   35.9520   15.9720 C   0  0  0  0  0  0  0  0  0  0  0  0
   34.5370   35.1010   21.5890 C   0  0  0  0  0  0  0  0  0  0  0  0
   35.6110   35.5300   17.1000 C   0  0  0  0  0  0  0  0  0  0  0  0
   34.3070   39.2620   24.0490 C   0  0  0  0  0  0  0  0  0  0  0  0
   34.7790   37.9570   21.6660 C   0  0  0  0  0  0  0  0  0  0  0  0
   35.1450   37.2560   20.4670 C   0  0  0  0  0  0  0  0  0  0  0  0
   37.6090   36.4270   16.1840 C   0  0  0  0  0  0  0  0  0  0  0  0
   38.2250   36.4510   17.4380 C   0  0  0  0  0  0  0  0  0  0  0  0
   37.4930   36.0500   18.5610 C   0  0  0  0  0  0  0  0  0  0  0  0
   34.4300   37.2410   22.8510 C   0  0  0  0  0  0  0  0  0  0  0  0
   34.7580   39.3760   21.7460 C   0  0  0  0  0  0  0  0  0  0  0  0
   35.0800   35.9060   20.4620 C   0  0  0  0  0  0  0  0  0  0  0  0
   36.1830   35.5910   18.3890 C   0  0  0  0  0  0  0  0  0  0  0  0
   34.3830   35.0400   16.9880 F   0  0  0  0  0  0  0  0  0  0  0  0
   35.4060   35.0430   19.4150 O   0  0  0  0  0  0  0  0  0  0  0  0
   34.5060   40.0360   22.8830 N   0  0  0  0  0  0  0  0  0  0  0  0
   34.3000   33.9130   21.5390 O   0  0  0  0  0  0  0  0  0  0  0  0
   34.3070   35.8360   22.8040 N   0  0  0  0  0  0  0  0  0  0  0  0
   34.2480   37.8870   24.0490 N   0  0  0  0  0  0  0  0  0  0  0  0
   34.2390   39.9820   25.2270 N   0  0  0  0  0  0  0  0  0  0  0  0
   35.8590   35.9390   14.9760 H   0  0  0  0  0  0  0  0  0  0  0  0
   35.4860   37.8420   19.6090 H   0  0  0  0  0  0  0  0  0  0  0  0
   39.2540   36.8080   17.5450 H   0  0  0  0  0  0  0  0  0  0  0  0
   37.9420   36.1160   19.5540 H   0  0  0  0  0  0  0  0  0  0  0  0
   34.9420   39.9790   20.8410 H   0  0  0  0  0  0  0  0  0  0  0  0
   34.1270   41.0160   25.1480 H   0  0  0  0  0  0  0  0  0  0  0  0
   38.2760   36.9110   15.1380 F   0  0  0  0  0  0  0  0  0  0  0  0
   34.1540   37.9000   28.4720 C   0  0  0  0  0  0  0  0  0  0  0  0
   34.6730   38.3510   27.1000 C   0  0  0  0  0  0  0  0  0  0  0  0
   33.7720   39.4710   26.5520 C   0  0  0  0  0  0  0  0  0  0  0  0
   32.2980   39.0150   26.5250 C   0  0  0  0  0  0  0  0  0  0  0  0
   31.8840   38.5400   27.9230 C   0  0  0  0  0  0  0  0  0  0  0  0
   32.7630   37.5060   28.4210 O   0  0  0  0  0  0  0  0  0  0  0  0
   34.2710   38.7060   29.2320 H   0  0  0  0  0  0  0  0  0  0  0  0
   34.6510   36.9560   28.7970 H   0  0  0  0  0  0  0  0  0  0  0  0
   34.6730   37.4760   26.4040 H   0  0  0  0  0  0  0  0  0  0  0  0
   35.7200   38.7230   27.1990 H   0  0  0  0  0  0  0  0  0  0  0  0
   33.8600   40.3710   27.2340 H   0  0  0  0  0  0  0  0  0  0  0  0
   31.6430   39.8590   26.2090 H   0  0  0  0  0  0  0  0  0  0  0  0
   32.1760   38.1750   25.7990 H   0  0  0  0  0  0  0  0  0  0  0  0
   31.8810   39.3840   28.6500 H   0  0  0  0  0  0  0  0  0  0  0  0
   30.9020   38.0150   27.8960 H   0  0  0  0  0  0  0  0  0  0  0  0
   33.7010   35.1160   23.9610 C   0  0  0  0  0  0  0  0  0  0  0  0
   34.0530   34.0480   23.9520 H   0  0  0  0  0  0  0  0  0  0  0  0
   34.0660   35.5950   24.9140 H   0  0  0  0  0  0  0  0  0  0  0  0
   32.1350   35.1420   23.9340 C   0  0  0  0  0  0  0  0  0  0  0  0
   31.7860   36.4210   23.3520 O   0  0  0  0  0  0  0  0  0  0  0  0
   31.0120   36.3350   22.7580 H   0  0  0  0  0  0  0  0  0  0  0  0
   31.5870   35.1210   25.3640 C   0  0  0  0  0  0  0  0  0  0  0  0
   31.9590   36.0040   25.9350 H   0  0  0  0  0  0  0  0  0  0  0  0
   30.4740   35.1600   25.3600 H   0  0  0  0  0  0  0  0  0  0  0  0
   31.9040   34.1960   25.8970 H   0  0  0  0  0  0  0  0  0  0  0  0
   31.5410   34.0140   23.0860 C   0  0  0  0  0  0  0  0  0  0  0  0
   30.4360   34.1340   23.0010 H   0  0  0  0  0  0  0  0  0  0  0  0
   31.9810   34.0000   22.0660 H   0  0  0  0  0  0  0  0  0  0  0  0
   31.7360   33.0260   23.5650 H   0  0  0  0  0  0  0  0  0  0  0  0
  1  3  2  0  0  0  0
  1  7  1  0  0  0  0
  1 21  1  0  0  0  0
  2 12  1  0  0  0  0
  2 17  2  0  0  0  0
  2 18  1  0  0  0  0
  3 13  1  0  0  0  0
  3 14  1  0  0  0  0
  4 16  2  0  0  0  0
  4 19  1  0  0  0  0
  4 20  1  0  0  0  0
  5  6  1  0  0  0  0
  5 10  1  0  0  0  0
  5 11  2  0  0  0  0
  6 12  2  0  0  0  0
  6 22  1  0  0  0  0
  7  8  2  0  0  0  0
  7 27  1  0  0  0  0
  8  9  1  0  0  0  0
  8 23  1  0  0  0  0
  9 13  2  0  0  0  0
  9 24  1  0  0  0  0
 10 18  1  0  0  0  0
 10 19  2  0  0  0  0
 11 16  1  0  0  0  0
 11 25  1  0  0  0  0
 12 15  1  0  0  0  0
 13 15  1  0  0  0  0
 18 43  1  0  0  0  0
 20 26  1  0  0  0  0
 20 30  1  0  0  0  0
 28 29  1  0  0  0  0
 28 33  1  0  0  0  0
 28 34  1  0  0  0  0
 28 35  1  0  0  0  0
 29 30  1  0  0  0  0
 29 36  1  0  0  0  0
 29 37  1  0  0  0  0
 30 31  1  0  0  0  0
 30 38  1  0  0  0  0
 31 32  1  0  0  0  0
 31 39  1  0  0  0  0
 31 40  1  0  0  0  0
 32 33  1  0  0  0  0
 32 41  1  0  0  0  0
 32 42  1  0  0  0  0
 43 44  1  0  0  0  0
 43 45  1  0  0  0  0
 43 46  1  0  0  0  0
 46 47  1  0  0  0  0
 46 49  1  0  0  0  0
 46 53  1  0  0  0  0
 47 48  1  0  0  0  0
 49 50  1  0  0  0  0
 49 51  1  0  0  0  0
 49 52  1  0  0  0  0
 53 54  1  0  0  0  0
 53 55  1  0  0  0  0
 53 56  1  0  0  0  0
M  END
$$$$
