2aa
                    3D
 Schrodinger Suite 2022-3.
 43 45  0  0  1  0  0  0  0  0999 V2000
   15.9400   10.5290   31.6900 C   0  0  0  0  0  0  0  0  0  0  0  0
   21.3520   12.5200   31.3110 C   0  0  0  0  0  0  0  0  0  0  0  0
   17.2320   11.0310   31.8190 C   0  0  0  0  0  0  0  0  0  0  0  0
   23.8940    8.4250   30.9980 C   0  0  0  0  0  0  0  0  0  0  0  0
   26.3210    8.3100   31.6300 C   0  0  0  0  0  0  0  0  0  0  0  0
   21.4930    9.7160   30.6700 C   0  0  0  0  0  0  0  0  0  0  0  0
   20.2230   10.3850   30.6280 C   0  0  0  0  0  0  0  0  0  0  0  0
   15.2590   10.8420   30.5070 C   0  0  0  0  0  0  0  0  0  0  0  0
   15.8110   11.6230   29.4890 C   0  0  0  0  0  0  0  0  0  0  0  0
   17.1040   12.1330   29.6500 C   0  0  0  0  0  0  0  0  0  0  0  0
   22.6460   10.4060   31.1490 C   0  0  0  0  0  0  0  0  0  0  0  0
   21.6670    8.3630   30.2730 C   0  0  0  0  0  0  0  0  0  0  0  0
   20.1640   11.6930   30.9690 C   0  0  0  0  0  0  0  0  0  0  0  0
   17.8070   11.8480   30.8240 C   0  0  0  0  0  0  0  0  0  0  0  0
   23.7920   12.4780   31.9440 C   0  0  0  0  0  0  0  0  0  0  0  0
   17.9510   10.7280   32.8930 F   0  0  0  0  0  0  0  0  0  0  0  0
   14.0360   10.3460   30.3360 F   0  0  0  0  0  0  0  0  0  0  0  0
   19.0290   12.4960   31.0490 O   0  0  0  0  0  0  0  0  0  0  0  0
   22.8320    7.7120   30.4150 N   0  0  0  0  0  0  0  0  0  0  0  0
   21.3610   13.7200   31.4710 O   0  0  0  0  0  0  0  0  0  0  0  0
   22.5720   11.7720   31.4610 N   0  0  0  0  0  0  0  0  0  0  0  0
   23.8490    9.7620   31.3130 N   0  0  0  0  0  0  0  0  0  0  0  0
   25.0030    7.6710   31.3700 N   0  0  0  0  0  0  0  0  0  0  0  0
   15.2590   11.8260   28.5690 H   0  0  0  0  0  0  0  0  0  0  0  0
   17.5560   12.7390   28.8580 H   0  0  0  0  0  0  0  0  0  0  0  0
   15.4980    9.8920   32.4570 H   0  0  0  0  0  0  0  0  0  0  0  0
   19.3460    9.8080   30.3280 H   0  0  0  0  0  0  0  0  0  0  0  0
   20.8280    7.8090   29.8210 H   0  0  0  0  0  0  0  0  0  0  0  0
   26.1780    9.3590   32.0200 H   0  0  0  0  0  0  0  0  0  0  0  0
   24.2440   11.9200   32.8090 H   0  0  0  0  0  0  0  0  0  0  0  0
   23.5330   13.5170   32.2770 H   0  0  0  0  0  0  0  0  0  0  0  0
   24.5560   12.5370   31.1230 H   0  0  0  0  0  0  0  0  0  0  0  0
   25.1010    6.7310   30.9300 H   0  0  0  0  0  0  0  0  0  0  0  0
   27.0330    7.4790   32.7330 C   0  0  0  0  0  0  0  0  0  0  0  0
   26.3270    7.2300   33.5600 H   0  0  0  0  0  0  0  0  0  0  0  0
   27.9290    8.0270   33.1160 H   0  0  0  0  0  0  0  0  0  0  0  0
   27.2040    8.3320   30.3600 C   0  0  0  0  0  0  0  0  0  0  0  0
   28.0320    9.0700   30.4780 H   0  0  0  0  0  0  0  0  0  0  0  0
   27.5860    7.3070   30.1460 H   0  0  0  0  0  0  0  0  0  0  0  0
   27.5900    6.2520   32.2300 O   0  0  0  0  0  0  0  0  0  0  0  0
   26.9040    5.7870   31.6580 H   0  0  0  0  0  0  0  0  0  0  0  0
   26.3870    8.7610   29.2520 O   0  0  0  0  0  0  0  0  0  0  0  0
   26.7730    8.3350   28.4300 H   0  0  0  0  0  0  0  0  0  0  0  0
  1  3  1  0  0  0  0
  1  8  2  0  0  0  0
  1 26  1  0  0  0  0
  2 13  1  0  0  0  0
  2 20  2  0  0  0  0
  2 21  1  0  0  0  0
  3 14  2  0  0  0  0
  3 16  1  0  0  0  0
  4 19  1  0  0  0  0
  4 22  2  0  0  0  0
  4 23  1  0  0  0  0
  5 23  1  0  0  0  0
  5 29  1  0  0  0  0
  5 34  1  0  0  0  0
  5 37  1  0  0  0  0
  6  7  1  0  0  0  0
  6 11  2  0  0  0  0
  6 12  1  0  0  0  0
  7 13  2  0  0  0  0
  7 27  1  0  0  0  0
  8  9  1  0  0  0  0
  8 17  1  0  0  0  0
  9 10  2  0  0  0  0
  9 24  1  0  0  0  0
 10 14  1  0  0  0  0
 10 25  1  0  0  0  0
 11 21  1  0  0  0  0
 11 22  1  0  0  0  0
 12 19  2  0  0  0  0
 12 28  1  0  0  0  0
 13 18  1  0  0  0  0
 14 18  1  0  0  0  0
 15 21  1  0  0  0  0
 15 30  1  0  0  0  0
 15 31  1  0  0  0  0
 15 32  1  0  0  0  0
 23 33  1  0  0  0  0
 34 35  1  0  0  0  0
 34 36  1  0  0  0  0
 34 40  1  0  0  0  0
 37 38  1  0  0  0  0
 37 39  1  0  0  0  0
 37 42  1  0  0  0  0
 40 41  1  0  0  0  0
 42 43  1  0  0  0  0
M  END
$$$$
