p38a_2z
 OpenBabel02232411163D
Structure written by MMmdl.
 45 47  0  0  0  0  0  0  0  0999 V2000
   38.2600   36.5460   17.1620 C   0  0  0  0  0  0  0  0  0  0  0  0
   34.4990   35.1080   21.2040 C   0  0  0  0  0  0  0  0  0  0  0  0
   37.4590   36.1010   18.2100 C   0  0  0  0  0  0  0  0  0  0  0  0
   34.0530   39.1140   23.8800 C   0  0  0  0  0  0  0  0  0  0  0  0
   33.1920   39.1660   26.3100 C   0  0  0  0  0  0  0  0  0  0  0  0
   34.6510   37.9760   21.4310 C   0  0  0  0  0  0  0  0  0  0  0  0
   35.0300   37.3470   20.1940 C   0  0  0  0  0  0  0  0  0  0  0  0
   37.6250   36.7260   15.9250 C   0  0  0  0  0  0  0  0  0  0  0  0
   36.2710   36.4600   15.7080 C   0  0  0  0  0  0  0  0  0  0  0  0
   35.4900   36.0030   16.7750 C   0  0  0  0  0  0  0  0  0  0  0  0
   34.2530   37.1840   22.5470 C   0  0  0  0  0  0  0  0  0  0  0  0
   34.6600   39.3840   21.6220 C   0  0  0  0  0  0  0  0  0  0  0  0
   34.9890   35.9970   20.1160 C   0  0  0  0  0  0  0  0  0  0  0  0
   36.0900   35.8160   18.0230 C   0  0  0  0  0  0  0  0  0  0  0  0
   33.6990   34.9870   23.5930 C   0  0  0  0  0  0  0  0  0  0  0  0
   37.9800   35.9400   19.4190 F   0  0  0  0  0  0  0  0  0  0  0  0
   35.3480   35.1940   19.0360 O   0  0  0  0  0  0  0  0  0  0  0  0
   34.3760   39.9620   22.7990 N   0  0  0  0  0  0  0  0  0  0  0  0
   34.3760   33.9050   21.1240 O   0  0  0  0  0  0  0  0  0  0  0  0
   34.1620   35.7870   22.4250 N   0  0  0  0  0  0  0  0  0  0  0  0
   33.9510   37.7490   23.7630 N   0  0  0  0  0  0  0  0  0  0  0  0
   33.9280   39.7360   25.1170 N   0  0  0  0  0  0  0  0  0  0  0  0
   39.3190   36.7810   17.3040 H   0  0  0  0  0  0  0  0  0  0  0  0
   33.5410   37.7040   26.5920 C   0  0  0  0  0  0  0  0  0  0  0  0
   35.3480   37.9840   19.3670 H   0  0  0  0  0  0  0  0  0  0  0  0
   35.8120   36.6180   14.7300 H   0  0  0  0  0  0  0  0  0  0  0  0
   34.4220   35.8100   16.6260 H   0  0  0  0  0  0  0  0  0  0  0  0
   34.8970   40.0510   20.7770 H   0  0  0  0  0  0  0  0  0  0  0  0
   34.3610   35.1810   24.4800 H   0  0  0  0  0  0  0  0  0  0  0  0
   32.6480   35.2800   23.8630 H   0  0  0  0  0  0  0  0  0  0  0  0
   33.7220   33.8930   23.3500 H   0  0  0  0  0  0  0  0  0  0  0  0
   33.8240   40.7810   25.0750 H   0  0  0  0  0  0  0  0  0  0  0  0
   38.3420   37.2120   14.9150 F   0  0  0  0  0  0  0  0  0  0  0  0
   33.6420   40.0450   27.5310 C   0  0  0  0  0  0  0  0  0  0  0  0
   31.6780   39.3510   26.0960 C   0  0  0  0  0  0  0  0  0  0  0  0
   35.0370   39.8980   27.8250 O   0  0  0  0  0  0  0  0  0  0  0  0
   35.5430   40.0390   26.9860 H   0  0  0  0  0  0  0  0  0  0  0  0
   33.4280   41.1230   27.3560 H   0  0  0  0  0  0  0  0  0  0  0  0
   33.1350   39.6950   28.4590 H   0  0  0  0  0  0  0  0  0  0  0  0
   31.1200   39.0300   27.0040 H   0  0  0  0  0  0  0  0  0  0  0  0
   31.4370   40.4160   25.8790 H   0  0  0  0  0  0  0  0  0  0  0  0
   31.3220   38.7280   25.2440 H   0  0  0  0  0  0  0  0  0  0  0  0
   33.1920   37.4270   27.6140 H   0  0  0  0  0  0  0  0  0  0  0  0
   33.0340   37.0230   25.8680 H   0  0  0  0  0  0  0  0  0  0  0  0
   34.6390   37.5340   26.5320 H   0  0  0  0  0  0  0  0  0  0  0  0
  1  3  2  0  0  0  0
  1  8  1  0  0  0  0
  1 23  1  0  0  0  0
  2 13  1  0  0  0  0
  2 19  2  0  0  0  0
  2 20  1  0  0  0  0
  3 14  1  0  0  0  0
  3 16  1  0  0  0  0
  4 18  2  0  0  0  0
  4 21  1  0  0  0  0
  4 22  1  0  0  0  0
  5 22  1  0  0  0  0
  5 24  1  0  0  0  0
  5 34  1  0  0  0  0
  5 35  1  0  0  0  0
  6  7  1  0  0  0  0
  6 11  1  0  0  0  0
  6 12  2  0  0  0  0
  7 13  2  0  0  0  0
  7 25  1  0  0  0  0
  8  9  2  0  0  0  0
  8 33  1  0  0  0  0
  9 10  1  0  0  0  0
  9 26  1  0  0  0  0
 10 14  2  0  0  0  0
 10 27  1  0  0  0  0
 11 20  1  0  0  0  0
 11 21  2  0  0  0  0
 12 18  1  0  0  0  0
 12 28  1  0  0  0  0
 13 17  1  0  0  0  0
 14 17  1  0  0  0  0
 15 20  1  0  0  0  0
 15 29  1  0  0  0  0
 15 30  1  0  0  0  0
 15 31  1  0  0  0  0
 22 32  1  0  0  0  0
 24 43  1  0  0  0  0
 24 44  1  0  0  0  0
 24 45  1  0  0  0  0
 34 36  1  0  0  0  0
 34 38  1  0  0  0  0
 34 39  1  0  0  0  0
 35 40  1  0  0  0  0
 35 41  1  0  0  0  0
 35 42  1  0  0  0  0
 36 37  1  0  0  0  0
M  END
$$$$
