p38a_3flw
 OpenBabel02232411163D
Structure written by MMmdl.
 49 51  0  0  0  0  0  0  0  0999 V2000
   38.2830   36.5400   17.1650 C   0  0  0  0  0  0  0  0  0  0  0  0
   37.6470   36.6900   15.9250 C   0  0  0  0  0  0  0  0  0  0  0  0
   33.1280   39.9240   27.4270 C   0  0  0  0  0  0  0  0  0  0  0  0
   34.5150   40.4710   27.7890 C   0  0  0  0  0  0  0  0  0  0  0  0
   31.6380   38.5390   25.9310 C   0  0  0  0  0  0  0  0  0  0  0  0
   34.4550   34.9370   23.7710 C   0  0  0  0  0  0  0  0  0  0  0  0
   38.0130   35.9580   19.4280 F   0  0  0  0  0  0  0  0  0  0  0  0
   37.4890   36.0900   18.2160 C   0  0  0  0  0  0  0  0  0  0  0  0
   38.3530   37.1870   14.9120 F   0  0  0  0  0  0  0  0  0  0  0  0
   36.3010   36.3850   15.7070 C   0  0  0  0  0  0  0  0  0  0  0  0
   35.5280   35.9250   16.7770 C   0  0  0  0  0  0  0  0  0  0  0  0
   36.1270   35.7700   18.0300 C   0  0  0  0  0  0  0  0  0  0  0  0
   35.3870   35.1550   19.0480 O   0  0  0  0  0  0  0  0  0  0  0  0
   35.0690   35.9600   20.1400 C   0  0  0  0  0  0  0  0  0  0  0  0
   35.0640   37.3110   20.1960 C   0  0  0  0  0  0  0  0  0  0  0  0
   34.7140   37.9490   21.4370 C   0  0  0  0  0  0  0  0  0  0  0  0
   34.6010   39.3570   21.5780 C   0  0  0  0  0  0  0  0  0  0  0  0
   34.2620   39.9510   22.7330 N   0  0  0  0  0  0  0  0  0  0  0  0
   34.6850   35.0770   21.2730 C   0  0  0  0  0  0  0  0  0  0  0  0
   34.5020   33.8820   21.2140 O   0  0  0  0  0  0  0  0  0  0  0  0
   34.5390   35.7630   22.5350 N   0  0  0  0  0  0  0  0  0  0  0  0
   34.4630   37.1610   22.6000 C   0  0  0  0  0  0  0  0  0  0  0  0
   34.1080   37.7380   23.7960 N   0  0  0  0  0  0  0  0  0  0  0  0
   34.0060   39.1160   23.8370 C   0  0  0  0  0  0  0  0  0  0  0  0
   33.6600   39.7300   25.0200 N   0  0  0  0  0  0  0  0  0  0  0  0
   33.0990   38.9940   26.1950 C   0  0  0  0  0  0  0  0  0  0  0  0
   31.4290   37.0360   26.1660 C   0  0  0  0  0  0  0  0  0  0  0  0
   31.7220   36.2690   24.9910 O   0  0  0  0  0  0  0  0  0  0  0  0
   34.4290   41.2930   28.9710 O   0  0  0  0  0  0  0  0  0  0  0  0
   39.3350   36.8010   17.3070 H   0  0  0  0  0  0  0  0  0  0  0  0
   32.7270   39.3420   28.2950 H   0  0  0  0  0  0  0  0  0  0  0  0
   32.4520   40.7940   27.2440 H   0  0  0  0  0  0  0  0  0  0  0  0
   35.2200   39.6600   28.0790 H   0  0  0  0  0  0  0  0  0  0  0  0
   34.9230   41.1040   26.9680 H   0  0  0  0  0  0  0  0  0  0  0  0
   30.9440   39.0950   26.6060 H   0  0  0  0  0  0  0  0  0  0  0  0
   31.3390   38.7940   24.8870 H   0  0  0  0  0  0  0  0  0  0  0  0
   33.3910   34.6400   23.9710 H   0  0  0  0  0  0  0  0  0  0  0  0
   35.0770   34.0100   23.6480 H   0  0  0  0  0  0  0  0  0  0  0  0
   34.8490   35.5110   24.6540 H   0  0  0  0  0  0  0  0  0  0  0  0
   35.8420   36.5190   14.7250 H   0  0  0  0  0  0  0  0  0  0  0  0
   34.4660   35.7050   16.6280 H   0  0  0  0  0  0  0  0  0  0  0  0
   35.3170   37.9440   19.3430 H   0  0  0  0  0  0  0  0  0  0  0  0
   34.7810   40.0150   20.7110 H   0  0  0  0  0  0  0  0  0  0  0  0
   33.5290   40.7620   25.0340 H   0  0  0  0  0  0  0  0  0  0  0  0
   33.7610   38.1070   26.3910 H   0  0  0  0  0  0  0  0  0  0  0  0
   32.0720   36.6670   27.0010 H   0  0  0  0  0  0  0  0  0  0  0  0
   30.3550   36.8110   26.3650 H   0  0  0  0  0  0  0  0  0  0  0  0
   32.5870   36.5820   24.6260 H   0  0  0  0  0  0  0  0  0  0  0  0
   33.6510   41.9230   28.8530 H   0  0  0  0  0  0  0  0  0  0  0  0
  1  2  2  0  0  0  0
  1  8  1  0  0  0  0
  1 30  1  0  0  0  0
  2  9  1  0  0  0  0
  2 10  1  0  0  0  0
  3  4  1  0  0  0  0
  3 26  1  0  0  0  0
  3 31  1  0  0  0  0
  3 32  1  0  0  0  0
  4 29  1  0  0  0  0
  4 33  1  0  0  0  0
  4 34  1  0  0  0  0
  5 26  1  0  0  0  0
  5 27  1  0  0  0  0
  5 35  1  0  0  0  0
  5 36  1  0  0  0  0
  6 21  1  0  0  0  0
  6 37  1  0  0  0  0
  6 38  1  0  0  0  0
  6 39  1  0  0  0  0
  7  8  1  0  0  0  0
  8 12  2  0  0  0  0
 10 11  2  0  0  0  0
 10 40  1  0  0  0  0
 11 12  1  0  0  0  0
 11 41  1  0  0  0  0
 12 13  1  0  0  0  0
 13 14  1  0  0  0  0
 14 15  2  0  0  0  0
 14 19  1  0  0  0  0
 15 16  1  0  0  0  0
 15 42  1  0  0  0  0
 16 17  2  0  0  0  0
 16 22  1  0  0  0  0
 17 18  1  0  0  0  0
 17 43  1  0  0  0  0
 18 24  2  0  0  0  0
 19 20  2  0  0  0  0
 19 21  1  0  0  0  0
 21 22  1  0  0  0  0
 22 23  2  0  0  0  0
 23 24  1  0  0  0  0
 24 25  1  0  0  0  0
 25 26  1  0  0  0  0
 25 44  1  0  0  0  0
 26 45  1  0  0  0  0
 27 28  1  0  0  0  0
 27 46  1  0  0  0  0
 27 47  1  0  0  0  0
 28 48  1  0  0  0  0
 29 49  1  0  0  0  0
M  END
$$$$
