18625-1
 OpenBabel02232411163D
Structure written by MMmdl.
 38 39  0  0  0  0  0  0  0  0999 V2000
   24.5530   11.0350   30.7470 C   0  0  0  0  0  0  0  0  0  0  0  0
   23.2080   11.2510   30.0880 C   0  0  0  0  0  0  0  0  0  0  0  0
   22.1380   11.2830   31.1090 O   0  0  0  0  0  0  0  0  0  0  0  0
   21.5530   10.1330   31.5090 C   0  0  0  0  0  0  0  0  0  0  0  0
   22.0190    8.9410   31.0660 N   0  0  0  0  0  0  0  0  0  0  0  0
   21.3160    7.8050   31.4400 C   0  0  0  0  0  0  0  0  0  0  0  0
   20.1890    7.8500   32.2540 C   0  0  0  0  0  0  0  0  0  0  0  0
   19.7080    9.1040   32.7170 C   0  0  0  0  0  0  0  0  0  0  0  0
   18.5730    9.1570   33.4870 N   0  0  0  0  0  0  0  0  0  0  0  0
   20.4090   10.2960   32.3490 C   0  0  0  0  0  0  0  0  0  0  0  0
   20.0070   11.5980   32.7170 C   0  0  0  0  0  0  0  0  0  0  0  0
   19.7240   12.6920   32.9760 N   0  0  0  0  0  0  0  0  0  0  0  0
   21.8790    6.6240   30.8930 N   0  0  0  0  0  0  0  0  0  0  0  0
   21.3150    5.3280   30.9480 C   0  0  0  0  0  0  0  0  0  0  0  0
   20.2370    5.1030   31.4560 O   0  0  0  0  0  0  0  0  0  0  0  0
   22.1580    4.2590   30.2670 C   0  0  0  0  0  0  0  0  0  0  0  0
   23.4790    4.0500   30.9480 C   0  0  0  0  0  0  0  0  0  0  0  0
   24.6880    4.5280   30.4200 C   0  0  0  0  0  0  0  0  0  0  0  0
   24.7110    5.3820   28.9180 Cl  0  0  0  0  0  0  0  0  0  0  0  0
   25.9120    4.3150   31.0600 C   0  0  0  0  0  0  0  0  0  0  0  0
   25.9380    3.5980   32.2570 C   0  0  0  0  0  0  0  0  0  0  0  0
   24.7460    3.1070   32.8020 C   0  0  0  0  0  0  0  0  0  0  0  0
   23.5290    3.3300   32.1540 C   0  0  0  0  0  0  0  0  0  0  0  0
   25.3520   11.0580   29.9640 H   0  0  0  0  0  0  0  0  0  0  0  0
   24.7670   11.8320   31.4920 H   0  0  0  0  0  0  0  0  0  0  0  0
   24.6010   10.0420   31.2510 H   0  0  0  0  0  0  0  0  0  0  0  0
   23.0970   12.2850   29.6790 H   0  0  0  0  0  0  0  0  0  0  0  0
   22.9780   10.4770   29.3230 H   0  0  0  0  0  0  0  0  0  0  0  0
   19.6530    6.9390   32.5310 H   0  0  0  0  0  0  0  0  0  0  0  0
   18.1800   10.0470   33.7940 H   0  0  0  0  0  0  0  0  0  0  0  0
   18.0580    8.2930   33.7450 H   0  0  0  0  0  0  0  0  0  0  0  0
   22.7710    6.7540   30.3750 H   0  0  0  0  0  0  0  0  0  0  0  0
   21.5910    3.2870   30.2940 H   0  0  0  0  0  0  0  0  0  0  0  0
   22.2860    4.5390   29.1880 H   0  0  0  0  0  0  0  0  0  0  0  0
   26.8440    4.6970   30.6270 H   0  0  0  0  0  0  0  0  0  0  0  0
   26.8900    3.4160   32.7650 H   0  0  0  0  0  0  0  0  0  0  0  0
   24.7710    2.5370   33.7370 H   0  0  0  0  0  0  0  0  0  0  0  0
   22.6130    2.9210   32.5880 H   0  0  0  0  0  0  0  0  0  0  0  0
  1  2  1  0  0  0  0
  1 24  1  0  0  0  0
  1 25  1  0  0  0  0
  1 26  1  0  0  0  0
  2  3  1  0  0  0  0
  2 27  1  0  0  0  0
  2 28  1  0  0  0  0
  3  4  1  0  0  0  0
  4 10  2  0  0  0  0
  4  5  1  0  0  0  0
  5  6  2  0  0  0  0
  6  7  1  0  0  0  0
  6 13  1  0  0  0  0
  7  8  2  0  0  0  0
  7 29  1  0  0  0  0
  8  9  1  0  0  0  0
  8 10  1  0  0  0  0
  9 30  1  0  0  0  0
  9 31  1  0  0  0  0
 10 11  1  0  0  0  0
 11 12  3  0  0  0  0
 13 14  1  0  0  0  0
 13 32  1  0  0  0  0
 14 15  2  0  0  0  0
 14 16  1  0  0  0  0
 16 17  1  0  0  0  0
 16 33  1  0  0  0  0
 16 34  1  0  0  0  0
 17 23  2  0  0  0  0
 17 18  1  0  0  0  0
 18 19  1  0  0  0  0
 18 20  2  0  0  0  0
 20 21  1  0  0  0  0
 20 35  1  0  0  0  0
 21 22  2  0  0  0  0
 21 36  1  0  0  0  0
 22 23  1  0  0  0  0
 22 37  1  0  0  0  0
 23 38  1  0  0  0  0
M  END
$$$$
