20670(2qbs)
 OpenBabel02232411173D
Structure written by MMmdl.
 45 47  0  0  0  0  0  0  0  0999 V2000
   42.4400   17.9710   12.5800 O   0  0  0  0  0  0  0  0  0  0  0  0
   41.3000   17.6590   12.9420 C   0  0  0  0  0  0  0  0  0  0  0  0
   40.2600   18.3350   12.7830 O   0  5  0  0  0  0  0  0  0  0  0  0
   41.0890   16.2820   13.6410 C   0  0  0  0  0  0  0  0  0  0  0  0
   42.4650   15.7950   13.7490 O   0  0  0  0  0  0  0  0  0  0  0  0
   42.6820   14.9210   14.7630 C   0  0  0  0  0  0  0  0  0  0  0  0
   42.0950   13.6000   14.8360 C   0  0  0  0  0  0  0  0  0  0  0  0
   40.8680   12.9720   13.5160 Br  0  0  0  0  0  0  0  0  0  0  0  0
   42.5260   12.8390   15.8910 C   0  0  0  0  0  0  0  0  0  0  0  0
   42.1090   11.5050   16.2750 C   0  0  0  0  0  0  0  0  0  0  0  0
   43.0040   10.5590   16.8230 C   0  0  0  0  0  0  0  0  0  0  0  0
   42.5640    9.2630   17.0780 C   0  0  0  0  0  0  0  0  0  0  0  0
   41.2660    8.8460   16.7490 C   0  0  0  0  0  0  0  0  0  0  0  0
   40.3690    9.7790   16.2100 C   0  0  0  0  0  0  0  0  0  0  0  0
   39.0030    9.4920   15.8690 N   0  0  0  0  0  0  0  0  0  0  0  0
   38.6280    8.1070   15.4520 C   0  0  0  0  0  0  0  0  0  0  0  0
   39.2750    7.7100   14.0990 C   0  0  0  0  0  0  0  0  0  0  0  0
   38.7830    6.3390   13.6190 C   0  0  0  0  0  0  0  0  0  0  0  0
   37.2500    6.2760   13.5360 C   0  0  0  0  0  0  0  0  0  0  0  0
   36.6010    6.6810   14.8710 C   0  0  0  0  0  0  0  0  0  0  0  0
   37.0820    8.0600   15.3480 C   0  0  0  0  0  0  0  0  0  0  0  0
   40.7810   11.1210   16.0520 C   0  0  0  0  0  0  0  0  0  0  0  0
   43.7240   13.7480   16.7760 S   0  0  0  0  0  0  0  0  0  0  0  0
   43.5930   15.1660   15.7610 C   0  0  0  0  0  0  0  0  0  0  0  0
   44.4060   16.4180   16.0890 C   0  0  0  0  0  0  0  0  0  0  0  0
   45.1410   16.3150   17.1000 O   0  0  0  0  0  0  0  0  0  0  0  0
   44.3160   17.4070   15.3620 O   0  5  0  0  0  0  0  0  0  0  0  0
   40.5160   15.5890   12.9910 H   0  0  0  0  0  0  0  0  0  0  0  0
   40.6090   16.3730   14.6370 H   0  0  0  0  0  0  0  0  0  0  0  0
   44.0400   10.8180   17.0430 H   0  0  0  0  0  0  0  0  0  0  0  0
   43.2440    8.5360   17.5260 H   0  0  0  0  0  0  0  0  0  0  0  0
   40.9840    7.8090   16.9150 H   0  0  0  0  0  0  0  0  0  0  0  0
   38.6410   10.1660   15.1540 H   0  0  0  0  0  0  0  0  0  0  0  0
   38.9560    7.3820   16.2410 H   0  0  0  0  0  0  0  0  0  0  0  0
   39.0260    8.4760   13.3310 H   0  0  0  0  0  0  0  0  0  0  0  0
   40.3820    7.6640   14.2220 H   0  0  0  0  0  0  0  0  0  0  0  0
   39.2150    6.1240   12.6140 H   0  0  0  0  0  0  0  0  0  0  0  0
   39.1450    5.5510   14.3230 H   0  0  0  0  0  0  0  0  0  0  0  0
   36.8920    6.9580   12.7330 H   0  0  0  0  0  0  0  0  0  0  0  0
   36.9380    5.2350   13.2790 H   0  0  0  0  0  0  0  0  0  0  0  0
   35.4920    6.7000   14.7490 H   0  0  0  0  0  0  0  0  0  0  0  0
   36.8470    5.9130   15.6440 H   0  0  0  0  0  0  0  0  0  0  0  0
   36.6380    8.2670   16.3490 H   0  0  0  0  0  0  0  0  0  0  0  0
   36.7250    8.8370   14.6310 H   0  0  0  0  0  0  0  0  0  0  0  0
   40.0320   11.8550   15.7470 H   0  0  0  0  0  0  0  0  0  0  0  0
  1  2  2  0  0  0  0
  2  3  1  0  0  0  0
  2  4  1  0  0  0  0
  4  5  1  0  0  0  0
  4 28  1  0  0  0  0
  4 29  1  0  0  0  0
  5  6  1  0  0  0  0
  6 24  2  0  0  0  0
  6  7  1  0  0  0  0
  7  8  1  0  0  0  0
  7  9  2  0  0  0  0
  9 10  1  0  0  0  0
  9 23  1  0  0  0  0
 10 22  2  0  0  0  0
 10 11  1  0  0  0  0
 11 12  2  0  0  0  0
 11 30  1  0  0  0  0
 12 13  1  0  0  0  0
 12 31  1  0  0  0  0
 13 14  2  0  0  0  0
 13 32  1  0  0  0  0
 14 15  1  0  0  0  0
 14 22  1  0  0  0  0
 15 16  1  0  0  0  0
 15 33  1  0  0  0  0
 16 21  1  0  0  0  0
 16 17  1  0  0  0  0
 16 34  1  0  0  0  0
 17 18  1  0  0  0  0
 17 35  1  0  0  0  0
 17 36  1  0  0  0  0
 18 19  1  0  0  0  0
 18 37  1  0  0  0  0
 18 38  1  0  0  0  0
 19 20  1  0  0  0  0
 19 39  1  0  0  0  0
 19 40  1  0  0  0  0
 20 21  1  0  0  0  0
 20 41  1  0  0  0  0
 20 42  1  0  0  0  0
 21 43  1  0  0  0  0
 21 44  1  0  0  0  0
 22 45  1  0  0  0  0
 23 24  1  0  0  0  0
 24 25  1  0  0  0  0
 25 26  2  0  0  0  0
 25 27  1  0  0  0  0
M  CHG  2   3  -1  27  -1
M  END
$$$$
