p38a_2aa
 OpenBabel02232411163D
Structure written by MMmdl.
 43 45  0  0  0  0  0  0  0  0999 V2000
   36.3490   35.9970   15.8310 C   0  0  0  0  0  0  0  0  0  0  0  0
   34.5260   35.0380   21.3840 C   0  0  0  0  0  0  0  0  0  0  0  0
   35.6770   35.5260   16.9550 C   0  0  0  0  0  0  0  0  0  0  0  0
   34.2000   39.1770   23.8590 C   0  0  0  0  0  0  0  0  0  0  0  0
   33.4450   39.2370   26.2580 C   0  0  0  0  0  0  0  0  0  0  0  0
   34.7970   37.9010   21.4990 C   0  0  0  0  0  0  0  0  0  0  0  0
   35.2140   37.2010   20.3140 C   0  0  0  0  0  0  0  0  0  0  0  0
   37.6390   36.5020   16.0390 C   0  0  0  0  0  0  0  0  0  0  0  0
   38.2690   36.5140   17.2870 C   0  0  0  0  0  0  0  0  0  0  0  0
   37.5600   36.0690   18.4080 C   0  0  0  0  0  0  0  0  0  0  0  0
   34.3610   37.1730   22.6460 C   0  0  0  0  0  0  0  0  0  0  0  0
   34.8150   39.3160   21.6030 C   0  0  0  0  0  0  0  0  0  0  0  0
   35.1230   35.8520   20.2890 C   0  0  0  0  0  0  0  0  0  0  0  0
   36.2630   35.5770   18.2360 C   0  0  0  0  0  0  0  0  0  0  0  0
   33.7480   35.0430   23.7880 C   0  0  0  0  0  0  0  0  0  0  0  0
   34.4640   35.0030   16.8440 F   0  0  0  0  0  0  0  0  0  0  0  0
   35.5140   34.9910   19.2670 O   0  0  0  0  0  0  0  0  0  0  0  0
   34.5250   39.9660   22.7420 N   0  0  0  0  0  0  0  0  0  0  0  0
   34.2860   33.8530   21.3270 O   0  0  0  0  0  0  0  0  0  0  0  0
   34.2260   35.7780   22.5830 N   0  0  0  0  0  0  0  0  0  0  0  0
   34.0540   37.8080   23.8280 N   0  0  0  0  0  0  0  0  0  0  0  0
   34.0890   39.8480   25.0670 N   0  0  0  0  0  0  0  0  0  0  0  0
   35.8870   35.9980   14.8410 H   0  0  0  0  0  0  0  0  0  0  0  0
   34.0830   39.9040   27.5120 C   0  0  0  0  0  0  0  0  0  0  0  0
   35.6070   37.7910   19.4830 H   0  0  0  0  0  0  0  0  0  0  0  0
   39.2880   36.8960   17.3960 H   0  0  0  0  0  0  0  0  0  0  0  0
   38.0150   36.1320   19.3990 H   0  0  0  0  0  0  0  0  0  0  0  0
   35.0630   39.9280   20.7220 H   0  0  0  0  0  0  0  0  0  0  0  0
   34.3970   35.2930   24.6710 H   0  0  0  0  0  0  0  0  0  0  0  0
   32.6920   35.3420   24.0260 H   0  0  0  0  0  0  0  0  0  0  0  0
   33.7870   33.9360   23.6100 H   0  0  0  0  0  0  0  0  0  0  0  0
   34.0160   40.8870   25.0450 H   0  0  0  0  0  0  0  0  0  0  0  0
   38.2790   37.0290   14.9980 F   0  0  0  0  0  0  0  0  0  0  0  0
   31.9140   39.4950   26.2000 C   0  0  0  0  0  0  0  0  0  0  0  0
   31.2640   38.9090   27.3390 O   0  0  0  0  0  0  0  0  0  0  0  0
   31.2100   37.9260   27.2250 H   0  0  0  0  0  0  0  0  0  0  0  0
   31.6890   40.5820   26.3130 H   0  0  0  0  0  0  0  0  0  0  0  0
   31.4730   39.0850   25.2650 H   0  0  0  0  0  0  0  0  0  0  0  0
   33.6350   39.2590   28.7060 O   0  0  0  0  0  0  0  0  0  0  0  0
   35.1890   39.7610   27.5140 H   0  0  0  0  0  0  0  0  0  0  0  0
   33.8110   40.9860   27.5600 H   0  0  0  0  0  0  0  0  0  0  0  0
   32.6310   39.1860   28.6520 H   0  0  0  0  0  0  0  0  0  0  0  0
   33.6450   38.1300   26.2850 H   0  0  0  0  0  0  0  0  0  0  0  0
  1  3  2  0  0  0  0
  1  8  1  0  0  0  0
  1 23  1  0  0  0  0
  2 13  1  0  0  0  0
  2 19  2  0  0  0  0
  2 20  1  0  0  0  0
  3 14  1  0  0  0  0
  3 16  1  0  0  0  0
  4 18  2  0  0  0  0
  4 21  1  0  0  0  0
  4 22  1  0  0  0  0
  5 22  1  0  0  0  0
  5 24  1  0  0  0  0
  5 34  1  0  0  0  0
  5 43  1  0  0  0  0
  6  7  1  0  0  0  0
  6 11  1  0  0  0  0
  6 12  2  0  0  0  0
  7 13  2  0  0  0  0
  7 25  1  0  0  0  0
  8  9  2  0  0  0  0
  8 33  1  0  0  0  0
  9 10  1  0  0  0  0
  9 26  1  0  0  0  0
 10 14  2  0  0  0  0
 10 27  1  0  0  0  0
 11 20  1  0  0  0  0
 11 21  2  0  0  0  0
 12 18  1  0  0  0  0
 12 28  1  0  0  0  0
 13 17  1  0  0  0  0
 14 17  1  0  0  0  0
 15 20  1  0  0  0  0
 15 29  1  0  0  0  0
 15 30  1  0  0  0  0
 15 31  1  0  0  0  0
 22 32  1  0  0  0  0
 24 39  1  0  0  0  0
 24 40  1  0  0  0  0
 24 41  1  0  0  0  0
 34 35  1  0  0  0  0
 34 37  1  0  0  0  0
 34 38  1  0  0  0  0
 35 36  1  0  0  0  0
 39 42  1  0  0  0  0
M  END
$$$$
