45
 OpenBabel02232411163D
Structure written by MMmdl.
 48 51  0  0  0  0  0  0  0  0999 V2000
    3.6890  -49.8480    5.9040 O   0  0  0  0  0  0  0  0  0  0  0  0
    2.9320  -49.0420    6.4810 C   0  0  0  0  0  0  0  0  0  0  0  0
    3.2640  -48.0240    7.0990 O   0  5  0  0  0  0  0  0  0  0  0  0
    1.4380  -49.4320    6.4080 C   0  0  0  0  0  0  0  0  0  0  0  0
   -0.3030  -50.9120    6.5840 C   0  0  0  0  0  0  0  0  0  0  0  0
   -1.1410  -52.0050    6.8580 C   0  0  0  0  0  0  0  0  0  0  0  0
   -2.4810  -51.8880    6.5160 C   0  0  0  0  0  0  0  0  0  0  0  0
   -2.9750  -50.7230    5.8860 C   0  0  0  0  0  0  0  0  0  0  0  0
   -2.1450  -49.6480    5.5930 C   0  0  0  0  0  0  0  0  0  0  0  0
   -0.7950  -49.6990    5.9770 C   0  0  0  0  0  0  0  0  0  0  0  0
    0.3150  -48.7710    5.9190 C   0  0  0  0  0  0  0  0  0  0  0  0
    0.1900  -47.3620    5.4580 C   0  0  0  0  0  0  0  0  0  0  0  0
   -0.4490  -46.4370    6.5160 C   0  0  0  0  0  0  0  0  0  0  0  0
   -1.9610  -46.6460    6.6130 C   0  0  0  0  0  0  0  0  0  0  0  0
   -2.4470  -45.4860    7.3820 O   0  0  0  0  0  0  0  0  0  0  0  0
   -3.7700  -45.6010    7.7920 C   0  0  0  0  0  0  0  0  0  0  0  0
   -6.3630  -45.6400    8.7700 C   0  0  0  0  0  0  0  0  0  0  0  0
   -5.3470  -46.2770    9.4800 C   0  0  0  0  0  0  0  0  0  0  0  0
   -4.0410  -46.2800    8.9870 C   0  0  0  0  0  0  0  0  0  0  0  0
   -0.7640  -52.9140    7.3270 H   0  0  0  0  0  0  0  0  0  0  0  0
   -3.1740  -52.7030    6.7300 H   0  0  0  0  0  0  0  0  0  0  0  0
   -4.0330  -50.6720    5.6250 H   0  0  0  0  0  0  0  0  0  0  0  0
   -2.5510  -48.7900    5.0590 H   0  0  0  0  0  0  0  0  0  0  0  0
   -0.4520  -47.3370    4.5410 H   0  0  0  0  0  0  0  0  0  0  0  0
    1.1920  -46.9420    5.1980 H   0  0  0  0  0  0  0  0  0  0  0  0
    0.0060  -46.6150    7.5150 H   0  0  0  0  0  0  0  0  0  0  0  0
   -0.2620  -45.3730    6.2380 H   0  0  0  0  0  0  0  0  0  0  0  0
   -2.4680  -46.5890    5.6260 H   0  0  0  0  0  0  0  0  0  0  0  0
   -2.2310  -47.5630    7.1770 H   0  0  0  0  0  0  0  0  0  0  0  0
   -3.2460  -46.7850    9.5330 H   0  0  0  0  0  0  0  0  0  0  0  0
   -6.0990  -45.0240    7.5350 C   0  0  0  0  0  0  0  0  0  0  0  0
   -4.7840  -44.9610    7.0440 C   0  0  0  0  0  0  0  0  0  0  0  0
   -4.4470  -44.2830    5.7450 C   0  0  0  0  0  0  0  0  0  0  0  0
   -5.6340  -43.5790    5.0720 C   0  0  0  0  0  0  0  0  0  0  0  0
   -6.9340  -44.3690    5.2480 C   0  0  0  0  0  0  0  0  0  0  0  0
   -7.2620  -44.4860    6.7440 C   0  0  0  0  0  0  0  0  0  0  0  0
   -5.5880  -46.7900   10.4110 H   0  0  0  0  0  0  0  0  0  0  0  0
   -7.3790  -45.6370    9.1610 H   0  0  0  0  0  0  0  0  0  0  0  0
   -4.0400  -45.0440    5.0340 H   0  0  0  0  0  0  0  0  0  0  0  0
   -3.6570  -43.5180    5.9250 H   0  0  0  0  0  0  0  0  0  0  0  0
   -5.3990  -43.4470    3.9940 H   0  0  0  0  0  0  0  0  0  0  0  0
   -5.7770  -42.5740    5.5270 H   0  0  0  0  0  0  0  0  0  0  0  0
   -6.8250  -45.3880    4.8090 H   0  0  0  0  0  0  0  0  0  0  0  0
   -7.7740  -43.8620    4.7270 H   0  0  0  0  0  0  0  0  0  0  0  0
   -7.5390  -43.4800    7.1430 H   0  0  0  0  0  0  0  0  0  0  0  0
   -8.1410  -45.1660    6.8690 H   0  0  0  0  0  0  0  0  0  0  0  0
    1.0670  -50.7260    6.8270 N   0  0  0  0  0  0  0  0  0  0  0  0
    1.6660  -51.4470    7.2120 H   0  0  0  0  0  0  0  0  0  0  0  0
  1  2  2  0  0  0  0
  2  3  1  0  0  0  0
  2  4  1  0  0  0  0
  4 11  2  0  0  0  0
  4 47  1  0  0  0  0
  5  6  2  0  0  0  0
  5 10  1  0  0  0  0
  5 47  1  0  0  0  0
  6  7  1  0  0  0  0
  6 20  1  0  0  0  0
  7  8  2  0  0  0  0
  7 21  1  0  0  0  0
  8  9  1  0  0  0  0
  8 22  1  0  0  0  0
  9 10  2  0  0  0  0
  9 23  1  0  0  0  0
 10 11  1  0  0  0  0
 11 12  1  0  0  0  0
 12 24  1  0  0  0  0
 12 25  1  0  0  0  0
 12 13  1  0  0  0  0
 13 14  1  0  0  0  0
 13 26  1  0  0  0  0
 13 27  1  0  0  0  0
 14 15  1  0  0  0  0
 14 28  1  0  0  0  0
 14 29  1  0  0  0  0
 15 16  1  0  0  0  0
 16 19  2  0  0  0  0
 16 32  1  0  0  0  0
 17 18  2  0  0  0  0
 17 31  1  0  0  0  0
 17 38  1  0  0  0  0
 18 19  1  0  0  0  0
 18 37  1  0  0  0  0
 19 30  1  0  0  0  0
 31 32  2  0  0  0  0
 31 36  1  0  0  0  0
 32 33  1  0  0  0  0
 33 34  1  0  0  0  0
 33 39  1  0  0  0  0
 33 40  1  0  0  0  0
 34 35  1  0  0  0  0
 34 41  1  0  0  0  0
 34 42  1  0  0  0  0
 35 36  1  0  0  0  0
 35 43  1  0  0  0  0
 35 44  1  0  0  0  0
 36 45  1  0  0  0  0
 36 46  1  0  0  0  0
 47 48  1  0  0  0  0
M  CHG  1   3  -1
M  END
$$$$
