CAT-13c
 OpenBabel02232411143D
Structure written by MMmdl.
 45 47  0  0  1  0  0  0  0  0999 V2000
   14.5520   -4.6440   -0.3830 C   0  0  0  0  0  0  0  0  0  0  0  0
   15.2560   -3.6230   -1.2850 C   0  0  0  0  0  0  0  0  0  0  0  0
   14.7880   -3.7180   -2.7400 C   0  0  0  0  0  0  0  0  0  0  0  0
   15.0410   -2.1550   -0.7940 C   0  0  2  0  0  0  0  0  0  0  0  0
   15.7530   -1.0970   -1.6070 C   0  0  0  0  0  0  0  0  0  0  0  0
   16.8410   -1.4060   -2.4360 C   0  0  0  0  0  0  0  0  0  0  0  0
   17.3620   -0.4280   -3.2880 C   0  0  0  0  0  0  0  0  0  0  0  0
   16.8560    0.8730   -3.2640 C   0  0  0  0  0  0  0  0  0  0  0  0
   15.8620    1.2220   -2.3400 C   0  0  0  0  0  0  0  0  0  0  0  0
   15.4300    2.6220   -2.1380 C   0  0  0  0  0  0  0  0  0  0  0  0
   14.9830    3.4290   -3.1920 C   0  0  0  0  0  0  0  0  0  0  0  0
   14.5060    4.7180   -2.9280 C   0  0  0  0  0  0  0  0  0  0  0  0
   14.4520    5.2010   -1.6170 C   0  0  0  0  0  0  0  0  0  0  0  0
   14.9200    4.3890   -0.5800 C   0  0  0  0  0  0  0  0  0  0  0  0
   14.8070    4.9210    1.0540 Cl  0  0  0  0  0  0  0  0  0  0  0  0
   15.4390    3.1210   -0.8240 C   0  0  0  0  0  0  0  0  0  0  0  0
   15.2810    0.2200   -1.5490 C   0  0  0  0  0  0  0  0  0  0  0  0
   15.4230   -2.0150    0.6560 N   0  3  0  0  0  0  0  0  0  0  0  0
   14.2740   -2.1340    1.4540 C   0  0  0  0  0  0  0  0  0  0  0  0
   14.3310   -2.4370    2.7870 N   0  0  0  0  0  0  0  0  0  0  0  0
   13.1340   -1.9590    0.6800 N   0  0  0  0  0  0  0  0  0  0  0  0
   11.7490   -2.0820    1.1810 C   0  0  0  0  0  0  0  0  0  0  0  0
   13.5020   -1.8980   -0.7550 C   0  0  0  0  0  0  0  0  0  0  0  0
   12.6870   -1.6930   -1.5960 O   0  0  0  0  0  0  0  0  0  0  0  0
   14.9060   -4.5680    0.6700 H   0  0  0  0  0  0  0  0  0  0  0  0
   13.4470   -4.5420   -0.4100 H   0  0  0  0  0  0  0  0  0  0  0  0
   14.8050   -5.6700   -0.7410 H   0  0  0  0  0  0  0  0  0  0  0  0
   16.3580   -3.8340   -1.2120 H   0  0  0  0  0  0  0  0  0  0  0  0
   15.6020   -4.1540   -3.3550 H   0  0  0  0  0  0  0  0  0  0  0  0
   13.8880   -4.3640   -2.8140 H   0  0  0  0  0  0  0  0  0  0  0  0
   14.5370   -2.7260   -3.1770 H   0  0  0  0  0  0  0  0  0  0  0  0
   17.2840   -2.4010   -2.4360 H   0  0  0  0  0  0  0  0  0  0  0  0
   18.1740   -0.6900   -3.9750 H   0  0  0  0  0  0  0  0  0  0  0  0
   17.2330    1.6180   -3.9610 H   0  0  0  0  0  0  0  0  0  0  0  0
   14.9870    3.0460   -4.2170 H   0  0  0  0  0  0  0  0  0  0  0  0
   14.1510    5.3430   -3.7550 H   0  0  0  0  0  0  0  0  0  0  0  0
   14.0250    6.1840   -1.4130 H   0  0  0  0  0  0  0  0  0  0  0  0
   15.8330    2.5080   -0.0110 H   0  0  0  0  0  0  0  0  0  0  0  0
   14.4530    0.4710   -0.8900 H   0  0  0  0  0  0  0  0  0  0  0  0
   16.3040   -2.4880    0.9960 H   0  0  0  0  0  0  0  0  0  0  0  0
   13.6110   -2.0510    3.4480 H   0  0  0  0  0  0  0  0  0  0  0  0
   11.2480   -2.9510    0.6750 H   0  0  0  0  0  0  0  0  0  0  0  0
   11.7340   -2.2600    2.2860 H   0  0  0  0  0  0  0  0  0  0  0  0
   11.1940   -1.1320    0.9540 H   0  0  0  0  0  0  0  0  0  0  0  0
   15.2960   -2.4300    3.2290 H   0  0  0  0  0  0  0  0  0  0  0  0
  1  2  1  0  0  0  0
  1 25  1  0  0  0  0
  1 26  1  0  0  0  0
  1 27  1  0  0  0  0
  2  3  1  0  0  0  0
  2 28  1  0  0  0  0
  3 29  1  0  0  0  0
  3 30  1  0  0  0  0
  3 31  1  0  0  0  0
  4  2  1  6  0  0  0
  4  5  1  0  0  0  0
  4 18  1  0  0  0  0
  4 23  1  0  0  0  0
  5  6  2  0  0  0  0
  5 17  1  0  0  0  0
  6  7  1  0  0  0  0
  6 32  1  0  0  0  0
  7  8  2  0  0  0  0
  7 33  1  0  0  0  0
  8  9  1  0  0  0  0
  8 34  1  0  0  0  0
  9 10  1  0  0  0  0
  9 17  2  0  0  0  0
 10 11  2  0  0  0  0
 10 16  1  0  0  0  0
 11 12  1  0  0  0  0
 11 35  1  0  0  0  0
 12 13  2  0  0  0  0
 12 36  1  0  0  0  0
 13 14  1  0  0  0  0
 13 37  1  0  0  0  0
 14 15  1  0  0  0  0
 14 16  2  0  0  0  0
 16 38  1  0  0  0  0
 17 39  1  0  0  0  0
 18 19  2  0  0  0  0
 18 40  1  0  0  0  0
 19 20  1  0  0  0  0
 19 21  1  0  0  0  0
 20 41  1  0  0  0  0
 20 45  1  0  0  0  0
 21 22  1  0  0  0  0
 21 23  1  0  0  0  0
 22 42  1  0  0  0  0
 22 43  1  0  0  0  0
 22 44  1  0  0  0  0
 23 24  2  0  0  0  0
M  CHG  1  18   1
M  END
$$$$
