23480
                    3D
 Schrodinger Suite 2022-3.
 50 52  0  0  1  0  0  0  0  0999 V2000
   43.7440   13.8760   16.7320 S   0  0  0  0  0  0  0  0  0  0  0  0
   43.6110   15.2300   15.6320 C   0  0  0  0  0  0  0  0  0  0  0  0
   42.7130   14.9170   14.6440 C   0  0  0  0  0  0  0  0  0  0  0  0
   42.1130   13.6100   14.8060 C   0  0  0  0  0  0  0  0  0  0  0  0
   42.5500   12.9110   15.9010 C   0  0  0  0  0  0  0  0  0  0  0  0
   44.4110   16.5100   15.8880 C   0  0  0  0  0  0  0  0  0  0  0  0
   45.2450   16.4340   16.8170 O   0  0  0  0  0  0  0  0  0  0  0  0
   44.1820   17.5070   15.2020 O   0  5  0  0  0  0  0  0  0  0  0  0
   42.1550   11.5840   16.3290 C   0  0  0  0  0  0  0  0  0  0  0  0
   40.8290   11.1770   16.1310 C   0  0  0  0  0  0  0  0  0  0  0  0
   40.4480    9.8270   16.2900 C   0  0  0  0  0  0  0  0  0  0  0  0
   41.3670    8.9120   16.8230 C   0  0  0  0  0  0  0  0  0  0  0  0
   42.6610    9.3540   17.1360 C   0  0  0  0  0  0  0  0  0  0  0  0
   43.0730   10.6570   16.8720 C   0  0  0  0  0  0  0  0  0  0  0  0
   40.8510   12.9290   13.5470 Br  0  0  0  0  0  0  0  0  0  0  0  0
   42.5140   15.7080   13.5590 O   0  0  0  0  0  0  0  0  0  0  0  0
   41.1480   16.2140   13.4170 C   0  0  0  0  0  0  0  0  0  0  0  0
   41.3890   17.6260   12.8000 C   0  0  0  0  0  0  0  0  0  0  0  0
   40.3750   18.3550   12.7480 O   0  5  0  0  0  0  0  0  0  0  0  0
   42.5190   17.9110   12.3870 O   0  0  0  0  0  0  0  0  0  0  0  0
   39.0910    9.5130   15.9390 N   0  0  0  0  0  0  0  0  0  0  0  0
   38.7160    8.0980   15.6620 C   0  0  0  0  0  0  0  0  0  0  0  0
   37.1760    8.0470   15.4990 C   0  0  0  0  0  0  0  0  0  0  0  0
   36.7000    6.6150   15.2100 C   0  0  0  0  0  0  0  0  0  0  0  0
   37.4050    6.0650   14.0030 N   0  0  0  0  0  0  0  0  0  0  0  0
   38.9010    6.0950   14.0970 C   0  0  0  0  0  0  0  0  0  0  0  0
   39.3850    7.5240   14.3860 C   0  0  0  0  0  0  0  0  0  0  0  0
   40.0590   11.8970   15.8420 H   0  0  0  0  0  0  0  0  0  0  0  0
   41.1050    7.8710   16.9950 H   0  0  0  0  0  0  0  0  0  0  0  0
   43.3580    8.6370   17.5760 H   0  0  0  0  0  0  0  0  0  0  0  0
   44.1070   10.9370   17.0780 H   0  0  0  0  0  0  0  0  0  0  0  0
   40.6180   16.2560   14.3910 H   0  0  0  0  0  0  0  0  0  0  0  0
   40.6130   15.5480   12.7100 H   0  0  0  0  0  0  0  0  0  0  0  0
   38.7370   10.1310   15.1750 H   0  0  0  0  0  0  0  0  0  0  0  0
   39.0070    7.4670   16.5440 H   0  0  0  0  0  0  0  0  0  0  0  0
   36.8520    8.7280   14.6760 H   0  0  0  0  0  0  0  0  0  0  0  0
   36.6900    8.3800   16.4500 H   0  0  0  0  0  0  0  0  0  0  0  0
   35.5950    6.6260   15.0180 H   0  0  0  0  0  0  0  0  0  0  0  0
   36.9060    5.9610   16.1030 H   0  0  0  0  0  0  0  0  0  0  0  0
   39.3290    5.7450   13.1200 H   0  0  0  0  0  0  0  0  0  0  0  0
   39.2550    5.4040   14.9100 H   0  0  0  0  0  0  0  0  0  0  0  0
   40.4930    7.4750   14.5330 H   0  0  0  0  0  0  0  0  0  0  0  0
   39.1680    8.1810   13.5150 H   0  0  0  0  0  0  0  0  0  0  0  0
   36.7830    4.9950   13.3590 C   0  0  0  0  0  0  0  0  0  0  0  0
   35.5850    4.7700   13.2920 O   0  0  0  0  0  0  0  0  0  0  0  0
   37.7160    4.2380   12.6540 O   0  0  0  0  0  0  0  0  0  0  0  0
   37.2230    3.0920   11.9140 C   0  0  0  0  0  0  0  0  0  0  0  0
   36.5370    3.4180   11.1070 H   0  0  0  0  0  0  0  0  0  0  0  0
   38.1710    2.6640   11.5100 H   0  0  0  0  0  0  0  0  0  0  0  0
   36.7310    2.3790   12.6110 H   0  0  0  0  0  0  0  0  0  0  0  0
  1  2  1  0  0  0  0
  1  5  1  0  0  0  0
  2  3  2  0  0  0  0
  2  6  1  0  0  0  0
  3  4  1  0  0  0  0
  3 16  1  0  0  0  0
  4  5  2  0  0  0  0
  4 15  1  0  0  0  0
  5  9  1  0  0  0  0
  6  7  2  0  0  0  0
  6  8  1  0  0  0  0
  9 10  1  0  0  0  0
  9 14  2  0  0  0  0
 10 11  2  0  0  0  0
 10 28  1  0  0  0  0
 11 12  1  0  0  0  0
 11 21  1  0  0  0  0
 12 13  2  0  0  0  0
 12 29  1  0  0  0  0
 13 14  1  0  0  0  0
 13 30  1  0  0  0  0
 14 31  1  0  0  0  0
 16 17  1  0  0  0  0
 17 18  1  0  0  0  0
 17 32  1  0  0  0  0
 17 33  1  0  0  0  0
 18 19  1  0  0  0  0
 18 20  2  0  0  0  0
 21 22  1  0  0  0  0
 21 34  1  0  0  0  0
 22 23  1  0  0  0  0
 22 27  1  0  0  0  0
 22 35  1  0  0  0  0
 23 24  1  0  0  0  0
 23 36  1  0  0  0  0
 23 37  1  0  0  0  0
 24 25  1  0  0  0  0
 24 38  1  0  0  0  0
 24 39  1  0  0  0  0
 25 26  1  0  0  0  0
 25 44  1  0  0  0  0
 26 27  1  0  0  0  0
 26 40  1  0  0  0  0
 26 41  1  0  0  0  0
 27 42  1  0  0  0  0
 27 43  1  0  0  0  0
 44 45  2  0  0  0  0
 44 46  1  0  0  0  0
 46 47  1  0  0  0  0
 47 48  1  0  0  0  0
 47 49  1  0  0  0  0
 47 50  1  0  0  0  0
M  CHG  2   8  -1  19  -1
M  END
$$$$
