p38a_2p
 OpenBabel02232411163D
Structure written by MMmdl.
 58 61  0  0  0  0  0  0  0  0999 V2000
   38.2470   36.4800   17.2080 C   0  0  0  0  0  0  0  0  0  0  0  0
   34.3420   34.9010   21.1100 C   0  0  0  0  0  0  0  0  0  0  0  0
   37.4380   36.0000   18.2340 C   0  0  0  0  0  0  0  0  0  0  0  0
   33.6860   38.9310   23.7070 C   0  0  0  0  0  0  0  0  0  0  0  0
   34.4500   37.7750   21.3260 C   0  0  0  0  0  0  0  0  0  0  0  0
   34.9150   37.1410   20.1240 C   0  0  0  0  0  0  0  0  0  0  0  0
   37.6340   36.6500   15.9590 C   0  0  0  0  0  0  0  0  0  0  0  0
   36.2950   36.3390   15.7090 C   0  0  0  0  0  0  0  0  0  0  0  0
   35.5080   35.8390   16.7520 C   0  0  0  0  0  0  0  0  0  0  0  0
   33.9630   36.9840   22.4090 C   0  0  0  0  0  0  0  0  0  0  0  0
   34.4840   39.1840   21.5180 C   0  0  0  0  0  0  0  0  0  0  0  0
   34.8920   35.7900   20.0510 C   0  0  0  0  0  0  0  0  0  0  0  0
   36.0870   35.6580   18.0110 C   0  0  0  0  0  0  0  0  0  0  0  0
   37.9330   35.8600   19.4570 F   0  0  0  0  0  0  0  0  0  0  0  0
   35.3490   34.9950   19.0020 O   0  0  0  0  0  0  0  0  0  0  0  0
   34.1240   39.7750   22.6660 N   0  0  0  0  0  0  0  0  0  0  0  0
   34.2870   33.6920   21.0430 O   0  0  0  0  0  0  0  0  0  0  0  0
   33.8690   35.5820   22.2860 N   0  0  0  0  0  0  0  0  0  0  0  0
   33.6000   37.5560   23.5990 N   0  0  0  0  0  0  0  0  0  0  0  0
   33.2690   39.5210   24.8780 N   0  0  0  0  0  0  0  0  0  0  0  0
   39.2940   36.7500   17.3760 H   0  0  0  0  0  0  0  0  0  0  0  0
   35.2870   37.7750   19.3160 H   0  0  0  0  0  0  0  0  0  0  0  0
   35.8500   36.4960   14.7240 H   0  0  0  0  0  0  0  0  0  0  0  0
   34.4520   35.6100   16.5780 H   0  0  0  0  0  0  0  0  0  0  0  0
   34.8260   39.8430   20.7000 H   0  0  0  0  0  0  0  0  0  0  0  0
   33.4340   40.5370   25.0240 H   0  0  0  0  0  0  0  0  0  0  0  0
   38.3560   37.1730   14.9710 F   0  0  0  0  0  0  0  0  0  0  0  0
   31.7170   38.6840   28.2650 C   0  0  0  0  0  0  0  0  0  0  0  0
   31.9100   39.4170   26.9310 C   0  0  0  0  0  0  0  0  0  0  0  0
   33.0180   38.7180   26.1150 C   0  0  0  0  0  0  0  0  0  0  0  0
   34.3120   38.5990   26.9490 C   0  0  0  0  0  0  0  0  0  0  0  0
   34.0070   37.9240   28.2920 C   0  0  0  0  0  0  0  0  0  0  0  0
   32.9540   38.6070   29.0100 O   0  0  0  0  0  0  0  0  0  0  0  0
   31.3280   37.6530   28.0950 H   0  0  0  0  0  0  0  0  0  0  0  0
   31.0590   39.2600   28.9540 H   0  0  0  0  0  0  0  0  0  0  0  0
   32.1930   40.4800   27.1160 H   0  0  0  0  0  0  0  0  0  0  0  0
   30.9570   39.3980   26.3500 H   0  0  0  0  0  0  0  0  0  0  0  0
   32.6640   37.6900   25.8170 H   0  0  0  0  0  0  0  0  0  0  0  0
   35.0630   37.9840   26.3940 H   0  0  0  0  0  0  0  0  0  0  0  0
   34.7480   39.6120   27.1200 H   0  0  0  0  0  0  0  0  0  0  0  0
   33.7100   36.8590   28.1390 H   0  0  0  0  0  0  0  0  0  0  0  0
   34.8700   38.0110   28.9910 H   0  0  0  0  0  0  0  0  0  0  0  0
   33.2960   34.7750   23.4170 C   0  0  0  0  0  0  0  0  0  0  0  0
   33.6710   33.7230   23.3210 H   0  0  0  0  0  0  0  0  0  0  0  0
   33.6700   35.2080   24.3880 H   0  0  0  0  0  0  0  0  0  0  0  0
   31.7480   34.7960   23.4050 C   0  0  0  0  0  0  0  0  0  0  0  0
   31.4240   35.8600   23.2430 H   0  0  0  0  0  0  0  0  0  0  0  0
   31.3630   34.1960   22.5500 H   0  0  0  0  0  0  0  0  0  0  0  0
   31.1330   34.3480   24.7380 C   0  0  0  0  0  0  0  0  0  0  0  0
   30.2400   35.0180   24.9160 H   0  0  0  0  0  0  0  0  0  0  0  0
   31.8540   34.6150   25.5630 H   0  0  0  0  0  0  0  0  0  0  0  0
   30.6130   32.6780   24.9260 S   0  0  0  0  0  0  0  0  0  0  0  0
   29.1690   32.5300   24.6080 O   0  0  0  0  0  0  0  0  0  0  0  0
   30.8680   32.2470   26.3260 O   0  0  0  0  0  0  0  0  0  0  0  0
   31.5480   31.6820   23.8560 C   0  0  0  0  0  0  0  0  0  0  0  0
   32.6420   31.7170   24.0950 H   0  0  0  0  0  0  0  0  0  0  0  0
   31.2450   30.6020   23.9300 H   0  0  0  0  0  0  0  0  0  0  0  0
   31.4200   31.9590   22.7790 H   0  0  0  0  0  0  0  0  0  0  0  0
  1  3  2  0  0  0  0
  1  7  1  0  0  0  0
  1 21  1  0  0  0  0
  2 12  1  0  0  0  0
  2 17  2  0  0  0  0
  2 18  1  0  0  0  0
  3 13  1  0  0  0  0
  3 14  1  0  0  0  0
  4 16  2  0  0  0  0
  4 19  1  0  0  0  0
  4 20  1  0  0  0  0
  5  6  1  0  0  0  0
  5 10  1  0  0  0  0
  5 11  2  0  0  0  0
  6 12  2  0  0  0  0
  6 22  1  0  0  0  0
  7  8  2  0  0  0  0
  7 27  1  0  0  0  0
  8  9  1  0  0  0  0
  8 23  1  0  0  0  0
  9 13  2  0  0  0  0
  9 24  1  0  0  0  0
 10 18  1  0  0  0  0
 10 19  2  0  0  0  0
 11 16  1  0  0  0  0
 11 25  1  0  0  0  0
 12 15  1  0  0  0  0
 13 15  1  0  0  0  0
 18 43  1  0  0  0  0
 20 26  1  0  0  0  0
 20 30  1  0  0  0  0
 28 29  1  0  0  0  0
 28 33  1  0  0  0  0
 28 34  1  0  0  0  0
 28 35  1  0  0  0  0
 29 30  1  0  0  0  0
 29 36  1  0  0  0  0
 29 37  1  0  0  0  0
 30 31  1  0  0  0  0
 30 38  1  0  0  0  0
 31 32  1  0  0  0  0
 31 39  1  0  0  0  0
 31 40  1  0  0  0  0
 32 33  1  0  0  0  0
 32 41  1  0  0  0  0
 32 42  1  0  0  0  0
 43 44  1  0  0  0  0
 43 45  1  0  0  0  0
 43 46  1  0  0  0  0
 46 47  1  0  0  0  0
 46 48  1  0  0  0  0
 46 49  1  0  0  0  0
 49 50  1  0  0  0  0
 49 51  1  0  0  0  0
 49 52  1  0  0  0  0
 52 53  2  0  0  0  0
 52 54  2  0  0  0  0
 52 55  1  0  0  0  0
 55 56  1  0  0  0  0
 55 57  1  0  0  0  0
 55 58  1  0  0  0  0
M  END
$$$$
