p38a_2s
 OpenBabel02232411163D
Structure written by MMmdl.
 54 57  0  0  1  0  0  0  0  0999 V2000
   36.4320   36.1700   15.6030 C   0  0  0  0  0  0  0  0  0  0  0  0
   34.3830   34.7410   20.8720 C   0  0  0  0  0  0  0  0  0  0  0  0
   35.7920   35.5990   16.6980 C   0  0  0  0  0  0  0  0  0  0  0  0
   33.6310   38.6640   23.6050 C   0  0  0  0  0  0  0  0  0  0  0  0
   34.5710   37.5860   21.2530 C   0  0  0  0  0  0  0  0  0  0  0  0
   35.1890   36.9870   20.1020 C   0  0  0  0  0  0  0  0  0  0  0  0
   37.7190   36.6750   15.8250 C   0  0  0  0  0  0  0  0  0  0  0  0
   38.3670   36.6200   17.0630 C   0  0  0  0  0  0  0  0  0  0  0  0
   37.6850   36.0820   18.1590 C   0  0  0  0  0  0  0  0  0  0  0  0
   33.9280   36.7730   22.2340 C   0  0  0  0  0  0  0  0  0  0  0  0
   34.6110   38.9870   21.4970 C   0  0  0  0  0  0  0  0  0  0  0  0
   35.1280   35.6440   19.9580 C   0  0  0  0  0  0  0  0  0  0  0  0
   36.4010   35.5640   17.9680 C   0  0  0  0  0  0  0  0  0  0  0  0
   34.5880   35.0590   16.5680 F   0  0  0  0  0  0  0  0  0  0  0  0
   35.7110   34.8610   18.9640 O   0  0  0  0  0  0  0  0  0  0  0  0
   34.1540   39.5370   22.6290 N   0  0  0  0  0  0  0  0  0  0  0  0
   34.2570   33.5450   20.7230 O   0  0  0  0  0  0  0  0  0  0  0  0
   33.7710   35.3890   22.0030 N   0  0  0  0  0  0  0  0  0  0  0  0
   33.4800   37.3010   23.4170 N   0  0  0  0  0  0  0  0  0  0  0  0
   33.2040   39.2420   24.7810 N   0  0  0  0  0  0  0  0  0  0  0  0
   35.9480   36.2400   14.6280 H   0  0  0  0  0  0  0  0  0  0  0  0
   35.7080   37.6400   19.3970 H   0  0  0  0  0  0  0  0  0  0  0  0
   39.3770   37.0170   17.1890 H   0  0  0  0  0  0  0  0  0  0  0  0
   38.1480   36.0950   19.1490 H   0  0  0  0  0  0  0  0  0  0  0  0
   35.0390   39.6700   20.7420 H   0  0  0  0  0  0  0  0  0  0  0  0
   33.4030   40.2530   24.9350 H   0  0  0  0  0  0  0  0  0  0  0  0
   38.3370   37.2690   14.8070 F   0  0  0  0  0  0  0  0  0  0  0  0
   31.8220   38.5370   28.2710 C   0  0  0  0  0  0  0  0  0  0  0  0
   32.0000   39.2510   26.9250 C   0  0  0  0  0  0  0  0  0  0  0  0
   32.9500   38.4410   26.0180 C   0  0  0  0  0  0  0  0  0  0  0  0
   34.2770   38.1460   26.7540 C   0  0  0  0  0  0  0  0  0  0  0  0
   33.9900   37.4840   28.1070 C   0  0  0  0  0  0  0  0  0  0  0  0
   33.0930   38.2830   28.9120 O   0  0  0  0  0  0  0  0  0  0  0  0
   31.2800   37.5720   28.1430 H   0  0  0  0  0  0  0  0  0  0  0  0
   31.3130   39.1950   29.0120 H   0  0  0  0  0  0  0  0  0  0  0  0
   32.4190   40.2720   27.0970 H   0  0  0  0  0  0  0  0  0  0  0  0
   31.0090   39.3570   26.4230 H   0  0  0  0  0  0  0  0  0  0  0  0
   32.4560   37.4720   25.7280 H   0  0  0  0  0  0  0  0  0  0  0  0
   34.9090   37.4570   26.1430 H   0  0  0  0  0  0  0  0  0  0  0  0
   34.8460   39.0940   26.9090 H   0  0  0  0  0  0  0  0  0  0  0  0
   33.5480   36.4700   27.9710 H   0  0  0  0  0  0  0  0  0  0  0  0
   34.9070   37.4460   28.7400 H   0  0  0  0  0  0  0  0  0  0  0  0
   32.9700   34.5310   22.9310 C   0  0  0  0  0  0  0  0  0  0  0  0
   33.5670   33.6030   23.1510 H   0  0  0  0  0  0  0  0  0  0  0  0
   32.7940   35.0750   23.9080 H   0  0  0  0  0  0  0  0  0  0  0  0
   31.6000   34.1750   22.3190 C   0  0  2  0  0  0  0  0  0  0  0  0
   30.6340   34.7620   23.2060 O   0  0  0  0  0  0  0  0  0  0  0  0
   29.7210   34.4980   22.8840 H   0  0  0  0  0  0  0  0  0  0  0  0
   31.3140   32.6580   22.2410 C   0  0  0  0  0  0  0  0  0  0  0  0
   31.5380   32.1290   23.1950 H   0  0  0  0  0  0  0  0  0  0  0  0
   31.8080   32.1870   21.3660 H   0  0  0  0  0  0  0  0  0  0  0  0
   31.4380   34.6190   21.3110 H   0  0  0  0  0  0  0  0  0  0  0  0
   29.8870   32.5340   22.1160 O   0  0  0  0  0  0  0  0  0  0  0  0
   29.6270   32.6540   21.1440 H   0  0  0  0  0  0  0  0  0  0  0  0
  1  3  2  0  0  0  0
  1  7  1  0  0  0  0
  1 21  1  0  0  0  0
  2 12  1  0  0  0  0
  2 17  2  0  0  0  0
  2 18  1  0  0  0  0
  3 13  1  0  0  0  0
  3 14  1  0  0  0  0
  4 16  2  0  0  0  0
  4 19  1  0  0  0  0
  4 20  1  0  0  0  0
  5  6  1  0  0  0  0
  5 10  1  0  0  0  0
  5 11  2  0  0  0  0
  6 12  2  0  0  0  0
  6 22  1  0  0  0  0
  7  8  2  0  0  0  0
  7 27  1  0  0  0  0
  8  9  1  0  0  0  0
  8 23  1  0  0  0  0
  9 13  2  0  0  0  0
  9 24  1  0  0  0  0
 10 18  1  0  0  0  0
 10 19  2  0  0  0  0
 11 16  1  0  0  0  0
 11 25  1  0  0  0  0
 12 15  1  0  0  0  0
 13 15  1  0  0  0  0
 18 43  1  0  0  0  0
 20 26  1  0  0  0  0
 20 30  1  0  0  0  0
 28 29  1  0  0  0  0
 28 33  1  0  0  0  0
 28 34  1  0  0  0  0
 28 35  1  0  0  0  0
 29 30  1  0  0  0  0
 29 36  1  0  0  0  0
 29 37  1  0  0  0  0
 30 31  1  0  0  0  0
 30 38  1  0  0  0  0
 31 32  1  0  0  0  0
 31 39  1  0  0  0  0
 31 40  1  0  0  0  0
 32 33  1  0  0  0  0
 32 41  1  0  0  0  0
 32 42  1  0  0  0  0
 43 44  1  0  0  0  0
 43 45  1  0  0  0  0
 43 46  1  0  0  0  0
 46 47  1  0  0  0  0
 46 49  1  0  0  0  0
 46 52  1  1  0  0  0
 47 48  1  0  0  0  0
 49 50  1  0  0  0  0
 49 51  1  0  0  0  0
 49 53  1  0  0  0  0
 53 54  1  0  0  0  0
M  END
$$$$
