18639-1
 OpenBabel02232411163D
Structure written by MMmdl.
 48 49  0  0  0  0  0  0  0  0999 V2000
   24.4290   10.9410   30.7560 C   0  0  0  0  0  0  0  0  0  0  0  0
   23.0980   11.2690   30.1130 C   0  0  0  0  0  0  0  0  0  0  0  0
   22.0230   11.3250   31.1260 O   0  0  0  0  0  0  0  0  0  0  0  0
   21.4440   10.1730   31.5360 C   0  0  0  0  0  0  0  0  0  0  0  0
   21.9290    8.9860   31.1050 N   0  0  0  0  0  0  0  0  0  0  0  0
   21.2390    7.8400   31.4750 C   0  0  0  0  0  0  0  0  0  0  0  0
   20.1030    7.8700   32.2750 C   0  0  0  0  0  0  0  0  0  0  0  0
   19.6080    9.1200   32.7340 C   0  0  0  0  0  0  0  0  0  0  0  0
   18.4710    9.1560   33.5000 N   0  0  0  0  0  0  0  0  0  0  0  0
   20.2930   10.3230   32.3680 C   0  0  0  0  0  0  0  0  0  0  0  0
   19.8780   11.6200   32.7340 C   0  0  0  0  0  0  0  0  0  0  0  0
   19.5880   12.7130   32.9950 N   0  0  0  0  0  0  0  0  0  0  0  0
   21.8340    6.6790   30.9290 N   0  0  0  0  0  0  0  0  0  0  0  0
   21.2920    5.3780   30.9010 C   0  0  0  0  0  0  0  0  0  0  0  0
   20.2270    5.0910   31.4050 O   0  0  0  0  0  0  0  0  0  0  0  0
   22.1390    4.3920   30.1030 C   0  0  0  0  0  0  0  0  0  0  0  0
   23.5290    4.1870   30.6320 C   0  0  0  0  0  0  0  0  0  0  0  0
   24.5860    5.0830   30.2780 C   0  0  0  0  0  0  0  0  0  0  0  0
   24.1740    6.1180   29.4470 O   0  0  0  0  0  0  0  0  0  0  0  0
   25.0820    7.2420   29.2710 C   0  0  0  0  0  0  0  0  0  0  0  0
   25.8870    4.8830   30.7100 C   0  0  0  0  0  0  0  0  0  0  0  0
   26.1810    3.7820   31.5420 C   0  0  0  0  0  0  0  0  0  0  0  0
   27.5570    3.5740   32.0010 N   0  3  0  0  0  0  0  0  0  0  0  0
   27.7530    2.7590   32.8890 O   0  5  0  0  0  0  0  0  0  0  0  0
   28.4540    4.2190   31.4720 O   0  0  0  0  0  0  0  0  0  0  0  0
   25.1470    2.8870   31.9050 C   0  0  0  0  0  0  0  0  0  0  0  0
   23.8300    3.0980   31.4350 C   0  0  0  0  0  0  0  0  0  0  0  0
   25.5530    1.8650   32.7090 O   0  0  0  0  0  0  0  0  0  0  0  0
   24.5930    0.8040   32.9950 C   0  0  0  0  0  0  0  0  0  0  0  0
   25.2180   10.8870   29.9640 H   0  0  0  0  0  0  0  0  0  0  0  0
   24.7220   11.7200   31.4920 H   0  0  0  0  0  0  0  0  0  0  0  0
   24.3960    9.9500   31.2680 H   0  0  0  0  0  0  0  0  0  0  0  0
   23.0550   12.3220   29.7430 H   0  0  0  0  0  0  0  0  0  0  0  0
   22.8230   10.5390   29.3200 H   0  0  0  0  0  0  0  0  0  0  0  0
   19.5760    6.9510   32.5400 H   0  0  0  0  0  0  0  0  0  0  0  0
   17.9760    8.2800   33.7600 H   0  0  0  0  0  0  0  0  0  0  0  0
   18.0580   10.0390   33.7980 H   0  0  0  0  0  0  0  0  0  0  0  0
   22.7340    6.8450   30.4110 H   0  0  0  0  0  0  0  0  0  0  0  0
   21.6020    3.4050   30.0810 H   0  0  0  0  0  0  0  0  0  0  0  0
   22.2090    4.7780   29.0460 H   0  0  0  0  0  0  0  0  0  0  0  0
   25.4440    7.6160   30.2520 H   0  0  0  0  0  0  0  0  0  0  0  0
   25.9120    6.9310   28.6010 H   0  0  0  0  0  0  0  0  0  0  0  0
   24.4130    7.9870   28.7790 H   0  0  0  0  0  0  0  0  0  0  0  0
   26.6990    5.5550   30.4050 H   0  0  0  0  0  0  0  0  0  0  0  0
   23.0440    2.3860   31.6980 H   0  0  0  0  0  0  0  0  0  0  0  0
   25.2220    0.0900   33.5780 H   0  0  0  0  0  0  0  0  0  0  0  0
   23.7600    1.1990   33.6130 H   0  0  0  0  0  0  0  0  0  0  0  0
   24.2400    0.3420   32.0470 H   0  0  0  0  0  0  0  0  0  0  0  0
  1  2  1  0  0  0  0
  1 30  1  0  0  0  0
  1 31  1  0  0  0  0
  1 32  1  0  0  0  0
  2  3  1  0  0  0  0
  2 33  1  0  0  0  0
  2 34  1  0  0  0  0
  3  4  1  0  0  0  0
  4 10  2  0  0  0  0
  4  5  1  0  0  0  0
  5  6  2  0  0  0  0
  6  7  1  0  0  0  0
  6 13  1  0  0  0  0
  7  8  2  0  0  0  0
  7 35  1  0  0  0  0
  8  9  1  0  0  0  0
  8 10  1  0  0  0  0
  9 36  1  0  0  0  0
  9 37  1  0  0  0  0
 10 11  1  0  0  0  0
 11 12  3  0  0  0  0
 13 14  1  0  0  0  0
 13 38  1  0  0  0  0
 14 15  2  0  0  0  0
 14 16  1  0  0  0  0
 16 17  1  0  0  0  0
 16 39  1  0  0  0  0
 16 40  1  0  0  0  0
 17 27  2  0  0  0  0
 17 18  1  0  0  0  0
 18 19  1  0  0  0  0
 18 21  2  0  0  0  0
 19 20  1  0  0  0  0
 20 41  1  0  0  0  0
 20 42  1  0  0  0  0
 20 43  1  0  0  0  0
 21 22  1  0  0  0  0
 21 44  1  0  0  0  0
 22 23  1  0  0  0  0
 22 26  2  0  0  0  0
 23 24  1  0  0  0  0
 23 25  2  0  0  0  0
 26 27  1  0  0  0  0
 26 28  1  0  0  0  0
 27 45  1  0  0  0  0
 28 29  1  0  0  0  0
 29 46  1  0  0  0  0
 29 47  1  0  0  0  0
 29 48  1  0  0  0  0
M  CHG  2  23   1  24  -1
M  END
$$$$
