p38a_2p
 OpenBabel02232411163D
Structure written by MMmdl.
 58 61  0  0  0  0  0  0  0  0999 V2000
   38.2360   36.4760   17.2760 C   0  0  0  0  0  0  0  0  0  0  0  0
   34.1770   35.1950   21.2790 C   0  0  0  0  0  0  0  0  0  0  0  0
   37.4770   36.0540   18.3650 C   0  0  0  0  0  0  0  0  0  0  0  0
   33.5060   39.3460   23.6690 C   0  0  0  0  0  0  0  0  0  0  0  0
   34.4840   38.0500   21.4370 C   0  0  0  0  0  0  0  0  0  0  0  0
   35.0460   37.3440   20.3170 C   0  0  0  0  0  0  0  0  0  0  0  0
   37.5590   36.6010   16.0560 C   0  0  0  0  0  0  0  0  0  0  0  0
   36.2030   36.3030   15.8940 C   0  0  0  0  0  0  0  0  0  0  0  0
   35.4660   35.8720   17.0020 C   0  0  0  0  0  0  0  0  0  0  0  0
   33.7640   37.3510   22.4480 C   0  0  0  0  0  0  0  0  0  0  0  0
   34.6210   39.4530   21.6020 C   0  0  0  0  0  0  0  0  0  0  0  0
   34.9220   35.9990   20.2690 C   0  0  0  0  0  0  0  0  0  0  0  0
   36.1100   35.7350   18.2350 C   0  0  0  0  0  0  0  0  0  0  0  0
   38.0410   35.9450   19.5600 F   0  0  0  0  0  0  0  0  0  0  0  0
   35.4310   35.1330   19.3050 O   0  0  0  0  0  0  0  0  0  0  0  0
   34.1660   40.1080   22.6790 N   0  0  0  0  0  0  0  0  0  0  0  0
   34.0760   33.9880   21.2760 O   0  0  0  0  0  0  0  0  0  0  0  0
   33.5360   35.9690   22.3140 N   0  0  0  0  0  0  0  0  0  0  0  0
   33.2910   37.9900   23.5710 N   0  0  0  0  0  0  0  0  0  0  0  0
   33.0110   40.0850   24.7280 N   0  0  0  0  0  0  0  0  0  0  0  0
   39.2950   36.7350   17.3760 H   0  0  0  0  0  0  0  0  0  0  0  0
   35.5610   37.9260   19.5490 H   0  0  0  0  0  0  0  0  0  0  0  0
   35.7100   36.4160   14.9240 H   0  0  0  0  0  0  0  0  0  0  0  0
   34.3960   35.6630   16.8960 H   0  0  0  0  0  0  0  0  0  0  0  0
   35.1220   40.0480   20.8230 H   0  0  0  0  0  0  0  0  0  0  0  0
   33.3580   41.0680   24.8060 H   0  0  0  0  0  0  0  0  0  0  0  0
   38.2360   37.0620   15.0070 F   0  0  0  0  0  0  0  0  0  0  0  0
   33.2160   38.6130   28.2720 C   0  0  0  0  0  0  0  0  0  0  0  0
   33.7310   38.9780   26.8750 C   0  0  0  0  0  0  0  0  0  0  0  0
   32.5670   39.5750   26.0560 C   0  0  0  0  0  0  0  0  0  0  0  0
   31.4100   38.5660   25.9830 C   0  0  0  0  0  0  0  0  0  0  0  0
   30.9850   38.1820   27.4070 C   0  0  0  0  0  0  0  0  0  0  0  0
   32.0930   37.7070   28.2060 O   0  0  0  0  0  0  0  0  0  0  0  0
   32.9080   39.5220   28.8360 H   0  0  0  0  0  0  0  0  0  0  0  0
   33.9630   38.0090   28.8370 H   0  0  0  0  0  0  0  0  0  0  0  0
   34.1210   38.0630   26.3700 H   0  0  0  0  0  0  0  0  0  0  0  0
   34.5590   39.7190   26.9670 H   0  0  0  0  0  0  0  0  0  0  0  0
   32.1950   40.5060   26.5840 H   0  0  0  0  0  0  0  0  0  0  0  0
   30.5460   39.0130   25.4380 H   0  0  0  0  0  0  0  0  0  0  0  0
   31.7380   37.6480   25.4350 H   0  0  0  0  0  0  0  0  0  0  0  0
   30.5200   39.0360   27.9400 H   0  0  0  0  0  0  0  0  0  0  0  0
   30.3190   37.2890   27.3980 H   0  0  0  0  0  0  0  0  0  0  0  0
   32.5390   35.2960   23.2080 C   0  0  0  0  0  0  0  0  0  0  0  0
   31.7070   36.0240   23.4230 H   0  0  0  0  0  0  0  0  0  0  0  0
   32.1070   34.4210   22.6510 H   0  0  0  0  0  0  0  0  0  0  0  0
   33.1550   34.8190   24.5390 C   0  0  0  0  0  0  0  0  0  0  0  0
   33.9800   34.0950   24.3310 H   0  0  0  0  0  0  0  0  0  0  0  0
   33.5730   35.7060   25.0810 H   0  0  0  0  0  0  0  0  0  0  0  0
   32.0530   34.1650   25.3800 C   0  0  0  0  0  0  0  0  0  0  0  0
   31.5290   33.3860   24.7620 H   0  0  0  0  0  0  0  0  0  0  0  0
   31.2680   34.9380   25.6080 H   0  0  0  0  0  0  0  0  0  0  0  0
   32.6410   33.4420   26.8720 S   0  0  0  0  0  0  0  0  0  0  0  0
   33.6680   32.4190   26.5680 O   0  0  0  0  0  0  0  0  0  0  0  0
   31.5040   32.8320   27.6110 O   0  0  0  0  0  0  0  0  0  0  0  0
   33.3310   34.7470   27.7760 C   0  0  0  0  0  0  0  0  0  0  0  0
   32.7350   35.7040   27.7060 H   0  0  0  0  0  0  0  0  0  0  0  0
   33.4100   34.5170   28.8700 H   0  0  0  0  0  0  0  0  0  0  0  0
   34.3700   35.0080   27.4470 H   0  0  0  0  0  0  0  0  0  0  0  0
  1  3  2  0  0  0  0
  1  7  1  0  0  0  0
  1 21  1  0  0  0  0
  2 12  1  0  0  0  0
  2 17  2  0  0  0  0
  2 18  1  0  0  0  0
  3 13  1  0  0  0  0
  3 14  1  0  0  0  0
  4 16  2  0  0  0  0
  4 19  1  0  0  0  0
  4 20  1  0  0  0  0
  5  6  1  0  0  0  0
  5 10  1  0  0  0  0
  5 11  2  0  0  0  0
  6 12  2  0  0  0  0
  6 22  1  0  0  0  0
  7  8  2  0  0  0  0
  7 27  1  0  0  0  0
  8  9  1  0  0  0  0
  8 23  1  0  0  0  0
  9 13  2  0  0  0  0
  9 24  1  0  0  0  0
 10 18  1  0  0  0  0
 10 19  2  0  0  0  0
 11 16  1  0  0  0  0
 11 25  1  0  0  0  0
 12 15  1  0  0  0  0
 13 15  1  0  0  0  0
 18 43  1  0  0  0  0
 20 26  1  0  0  0  0
 20 30  1  0  0  0  0
 28 29  1  0  0  0  0
 28 33  1  0  0  0  0
 28 34  1  0  0  0  0
 28 35  1  0  0  0  0
 29 30  1  0  0  0  0
 29 36  1  0  0  0  0
 29 37  1  0  0  0  0
 30 31  1  0  0  0  0
 30 38  1  0  0  0  0
 31 32  1  0  0  0  0
 31 39  1  0  0  0  0
 31 40  1  0  0  0  0
 32 33  1  0  0  0  0
 32 41  1  0  0  0  0
 32 42  1  0  0  0  0
 43 44  1  0  0  0  0
 43 45  1  0  0  0  0
 43 46  1  0  0  0  0
 46 47  1  0  0  0  0
 46 48  1  0  0  0  0
 46 49  1  0  0  0  0
 49 50  1  0  0  0  0
 49 51  1  0  0  0  0
 49 52  1  0  0  0  0
 52 53  2  0  0  0  0
 52 54  2  0  0  0  0
 52 55  1  0  0  0  0
 55 56  1  0  0  0  0
 55 57  1  0  0  0  0
 55 58  1  0  0  0  0
M  END
$$$$
