26
 OpenBabel02232411153D
Structure written by MMmdl.
 49 52  0  0  0  0  0  0  0  0999 V2000
    1.9070   28.9240    6.8280 C   0  0  0  0  0  0  0  0  0  0  0  0
   -1.6160   31.4760    7.9680 C   0  0  0  0  0  0  0  0  0  0  0  0
   -0.0300   26.0300    8.9310 C   0  0  0  0  0  0  0  0  0  0  0  0
   -0.8450   25.2920    9.9990 C   0  0  0  0  0  0  0  0  0  0  0  0
   -0.6680   23.7760    9.7550 C   0  0  0  0  0  0  0  0  0  0  0  0
   -1.3730   22.9510   10.8410 C   0  0  0  0  0  0  0  0  0  0  0  0
   -0.9050   23.3490   12.2500 C   0  0  0  0  0  0  0  0  0  0  0  0
   -1.0910   24.8550   12.4950 C   0  0  0  0  0  0  0  0  0  0  0  0
   -0.3840   25.6890   11.4160 C   0  0  0  0  0  0  0  0  0  0  0  0
    5.2960   25.6570    5.5630 C   0  0  0  0  0  0  0  0  0  0  0  0
    5.0930   24.8450    6.6970 C   0  0  0  0  0  0  0  0  0  0  0  0
    4.3180   25.2820    7.7770 C   0  0  0  0  0  0  0  0  0  0  0  0
    3.6890   26.5260    7.7090 C   0  0  0  0  0  0  0  0  0  0  0  0
    1.1880   27.9550    7.5290 N   0  0  0  0  0  0  0  0  0  0  0  0
   -0.0130   28.2700    8.0710 C   0  0  0  0  0  0  0  0  0  0  0  0
   -0.6840   27.3570    8.7940 O   0  0  0  0  0  0  0  0  0  0  0  0
   -0.5540   29.5720    7.9000 C   0  0  0  0  0  0  0  0  0  0  0  0
   -1.7080   30.2070    8.3740 N   0  0  0  0  0  0  0  0  0  0  0  0
   -0.4050   31.7260    7.2290 N   0  0  0  0  0  0  0  0  0  0  0  0
    0.2710   30.5110    7.1560 C   0  0  0  0  0  0  0  0  0  0  0  0
    1.4730   30.2170    6.5660 N   0  0  0  0  0  0  0  0  0  0  0  0
    3.1850   28.5940    6.4090 N   0  0  0  0  0  0  0  0  0  0  0  0
    3.8150   27.3110    6.5520 C   0  0  0  0  0  0  0  0  0  0  0  0
    4.6520   26.8840    5.4940 C   0  0  0  0  0  0  0  0  0  0  0  0
   -2.3250   32.2740    8.1660 H   0  0  0  0  0  0  0  0  0  0  0  0
    1.0250   26.1780    9.2500 H   0  0  0  0  0  0  0  0  0  0  0  0
   -0.1020   25.5510    7.9340 H   0  0  0  0  0  0  0  0  0  0  0  0
   -1.9260   25.5530    9.8970 H   0  0  0  0  0  0  0  0  0  0  0  0
   -1.0910   23.5090    8.7620 H   0  0  0  0  0  0  0  0  0  0  0  0
    0.4210   23.5240    9.7610 H   0  0  0  0  0  0  0  0  0  0  0  0
   -2.4690   23.1170   10.7670 H   0  0  0  0  0  0  0  0  0  0  0  0
   -1.1590   21.8690   10.6810 H   0  0  0  0  0  0  0  0  0  0  0  0
   -1.4890   22.7760   13.0060 H   0  0  0  0  0  0  0  0  0  0  0  0
    0.1740   23.0900   12.3620 H   0  0  0  0  0  0  0  0  0  0  0  0
   -2.1780   25.0970   12.5110 H   0  0  0  0  0  0  0  0  0  0  0  0
   -0.6610   25.1180   13.4890 H   0  0  0  0  0  0  0  0  0  0  0  0
    0.7170   25.5280   11.5120 H   0  0  0  0  0  0  0  0  0  0  0  0
   -0.5990   26.7680   11.5870 H   0  0  0  0  0  0  0  0  0  0  0  0
    5.9380   25.3210    4.7460 H   0  0  0  0  0  0  0  0  0  0  0  0
    4.1860   24.6720    8.6730 H   0  0  0  0  0  0  0  0  0  0  0  0
    3.0960   26.8630    8.5630 H   0  0  0  0  0  0  0  0  0  0  0  0
   -0.1500   32.6100    6.7640 H   0  0  0  0  0  0  0  0  0  0  0  0
    3.6680   29.2320    5.7350 H   0  0  0  0  0  0  0  0  0  0  0  0
    4.7950   27.5160    4.6140 H   0  0  0  0  0  0  0  0  0  0  0  0
    5.7680   23.6380    6.6410 O   0  0  0  0  0  0  0  0  0  0  0  0
    5.1970   22.5490    7.4120 C   0  0  0  0  0  0  0  0  0  0  0  0
    5.8670   21.7010    7.1430 H   0  0  0  0  0  0  0  0  0  0  0  0
    5.2400   22.7800    8.4980 H   0  0  0  0  0  0  0  0  0  0  0  0
    4.1530   22.3600    7.0770 H   0  0  0  0  0  0  0  0  0  0  0  0
  1 14  2  0  0  0  0
  1 21  1  0  0  0  0
  1 22  1  0  0  0  0
  2 18  2  0  0  0  0
  2 19  1  0  0  0  0
  2 25  1  0  0  0  0
  3  4  1  0  0  0  0
  3 16  1  0  0  0  0
  3 26  1  0  0  0  0
  3 27  1  0  0  0  0
  4  5  1  0  0  0  0
  4  9  1  0  0  0  0
  4 28  1  0  0  0  0
  5  6  1  0  0  0  0
  5 29  1  0  0  0  0
  5 30  1  0  0  0  0
  6  7  1  0  0  0  0
  6 31  1  0  0  0  0
  6 32  1  0  0  0  0
  7  8  1  0  0  0  0
  7 33  1  0  0  0  0
  7 34  1  0  0  0  0
  8  9  1  0  0  0  0
  8 35  1  0  0  0  0
  8 36  1  0  0  0  0
  9 37  1  0  0  0  0
  9 38  1  0  0  0  0
 10 11  2  0  0  0  0
 10 24  1  0  0  0  0
 10 39  1  0  0  0  0
 11 12  1  0  0  0  0
 11 45  1  0  0  0  0
 12 13  2  0  0  0  0
 12 40  1  0  0  0  0
 13 23  1  0  0  0  0
 13 41  1  0  0  0  0
 14 15  1  0  0  0  0
 15 16  1  0  0  0  0
 15 17  2  0  0  0  0
 17 18  1  0  0  0  0
 17 20  1  0  0  0  0
 19 20  1  0  0  0  0
 19 42  1  0  0  0  0
 20 21  2  0  0  0  0
 22 23  1  0  0  0  0
 22 43  1  0  0  0  0
 23 24  2  0  0  0  0
 24 44  1  0  0  0  0
 45 46  1  0  0  0  0
 46 47  1  0  0  0  0
 46 48  1  0  0  0  0
 46 49  1  0  0  0  0
M  END
$$$$
