p38a_3flw
 OpenBabel02232411163D
Structure written by MMmdl.
 49 51  0  0  0  0  0  0  0  0999 V2000
   38.2240   36.4970   17.2420 C   0  0  0  0  0  0  0  0  0  0  0  0
   37.5860   36.6550   16.0030 C   0  0  0  0  0  0  0  0  0  0  0  0
   34.1910   39.9240   27.6440 C   0  0  0  0  0  0  0  0  0  0  0  0
   35.7190   39.8190   27.6710 C   0  0  0  0  0  0  0  0  0  0  0  0
   32.0260   39.4870   26.4380 C   0  0  0  0  0  0  0  0  0  0  0  0
   33.9750   35.0980   23.8240 C   0  0  0  0  0  0  0  0  0  0  0  0
   37.9530   35.9290   19.5080 F   0  0  0  0  0  0  0  0  0  0  0  0
   37.4240   36.0750   18.3000 C   0  0  0  0  0  0  0  0  0  0  0  0
   38.3030   37.1210   14.9830 F   0  0  0  0  0  0  0  0  0  0  0  0
   36.2320   36.3860   15.7950 C   0  0  0  0  0  0  0  0  0  0  0  0
   35.4510   35.9570   16.8740 C   0  0  0  0  0  0  0  0  0  0  0  0
   36.0510   35.7950   18.1260 C   0  0  0  0  0  0  0  0  0  0  0  0
   35.3020   35.2070   19.1540 O   0  0  0  0  0  0  0  0  0  0  0  0
   34.9960   36.0290   20.2380 C   0  0  0  0  0  0  0  0  0  0  0  0
   35.0400   37.3800   20.2840 C   0  0  0  0  0  0  0  0  0  0  0  0
   34.7180   38.0390   21.5200 C   0  0  0  0  0  0  0  0  0  0  0  0
   34.7040   39.4520   21.6610 C   0  0  0  0  0  0  0  0  0  0  0  0
   34.4690   40.0660   22.8290 N   0  0  0  0  0  0  0  0  0  0  0  0
   34.5540   35.1700   21.3690 C   0  0  0  0  0  0  0  0  0  0  0  0
   34.3790   33.9720   21.3160 O   0  0  0  0  0  0  0  0  0  0  0  0
   34.3250   35.8750   22.6020 N   0  0  0  0  0  0  0  0  0  0  0  0
   34.4050   37.2750   22.6830 C   0  0  0  0  0  0  0  0  0  0  0  0
   34.1680   37.8730   23.8980 N   0  0  0  0  0  0  0  0  0  0  0  0
   34.2340   39.2480   23.9530 C   0  0  0  0  0  0  0  0  0  0  0  0
   34.1600   39.8910   25.1790 N   0  0  0  0  0  0  0  0  0  0  0  0
   33.5580   39.2620   26.3950 C   0  0  0  0  0  0  0  0  0  0  0  0
   31.2240   38.4970   25.5850 C   0  0  0  0  0  0  0  0  0  0  0  0
   30.5640   39.1530   24.4920 O   0  0  0  0  0  0  0  0  0  0  0  0
   36.2260   40.0030   29.0070 O   0  0  0  0  0  0  0  0  0  0  0  0
   39.2850   36.7290   17.3750 H   0  0  0  0  0  0  0  0  0  0  0  0
   33.7720   39.4100   28.5470 H   0  0  0  0  0  0  0  0  0  0  0  0
   33.8870   40.9990   27.6920 H   0  0  0  0  0  0  0  0  0  0  0  0
   36.0640   38.7920   27.4160 H   0  0  0  0  0  0  0  0  0  0  0  0
   36.1740   40.5930   27.0140 H   0  0  0  0  0  0  0  0  0  0  0  0
   31.6940   39.3920   27.5030 H   0  0  0  0  0  0  0  0  0  0  0  0
   31.8030   40.5290   26.1030 H   0  0  0  0  0  0  0  0  0  0  0  0
   34.6600   35.3780   24.6700 H   0  0  0  0  0  0  0  0  0  0  0  0
   32.9200   35.3260   24.1350 H   0  0  0  0  0  0  0  0  0  0  0  0
   34.0700   33.9990   23.6280 H   0  0  0  0  0  0  0  0  0  0  0  0
   35.7720   36.5200   14.8130 H   0  0  0  0  0  0  0  0  0  0  0  0
   34.3820   35.7650   16.7310 H   0  0  0  0  0  0  0  0  0  0  0  0
   35.3220   37.9960   19.4260 H   0  0  0  0  0  0  0  0  0  0  0  0
   34.8810   40.0920   20.7800 H   0  0  0  0  0  0  0  0  0  0  0  0
   34.0540   40.9290   25.1760 H   0  0  0  0  0  0  0  0  0  0  0  0
   33.7870   38.1630   26.4050 H   0  0  0  0  0  0  0  0  0  0  0  0
   31.8720   37.7540   25.0650 H   0  0  0  0  0  0  0  0  0  0  0  0
   30.4570   37.9900   26.2120 H   0  0  0  0  0  0  0  0  0  0  0  0
   29.9910   39.8880   24.8510 H   0  0  0  0  0  0  0  0  0  0  0  0
   35.8880   40.8590   29.3730 H   0  0  0  0  0  0  0  0  0  0  0  0
  1  2  2  0  0  0  0
  1  8  1  0  0  0  0
  1 30  1  0  0  0  0
  2  9  1  0  0  0  0
  2 10  1  0  0  0  0
  3  4  1  0  0  0  0
  3 26  1  0  0  0  0
  3 31  1  0  0  0  0
  3 32  1  0  0  0  0
  4 29  1  0  0  0  0
  4 33  1  0  0  0  0
  4 34  1  0  0  0  0
  5 26  1  0  0  0  0
  5 27  1  0  0  0  0
  5 35  1  0  0  0  0
  5 36  1  0  0  0  0
  6 21  1  0  0  0  0
  6 37  1  0  0  0  0
  6 38  1  0  0  0  0
  6 39  1  0  0  0  0
  7  8  1  0  0  0  0
  8 12  2  0  0  0  0
 10 11  2  0  0  0  0
 10 40  1  0  0  0  0
 11 12  1  0  0  0  0
 11 41  1  0  0  0  0
 12 13  1  0  0  0  0
 13 14  1  0  0  0  0
 14 15  2  0  0  0  0
 14 19  1  0  0  0  0
 15 16  1  0  0  0  0
 15 42  1  0  0  0  0
 16 17  2  0  0  0  0
 16 22  1  0  0  0  0
 17 18  1  0  0  0  0
 17 43  1  0  0  0  0
 18 24  2  0  0  0  0
 19 20  2  0  0  0  0
 19 21  1  0  0  0  0
 21 22  1  0  0  0  0
 22 23  2  0  0  0  0
 23 24  1  0  0  0  0
 24 25  1  0  0  0  0
 25 26  1  0  0  0  0
 25 44  1  0  0  0  0
 26 45  1  0  0  0  0
 27 28  1  0  0  0  0
 27 46  1  0  0  0  0
 27 47  1  0  0  0  0
 28 48  1  0  0  0  0
 29 49  1  0  0  0  0
M  END
$$$$
