p38a_2x
 OpenBabel02232411163D
Structure written by MMmdl.
 43 46  0  0  1  0  0  0  0  0999 V2000
   38.2690   36.5460   17.1380 C   0  0  0  0  0  0  0  0  0  0  0  0
   34.6130   35.1050   21.2000 C   0  0  0  0  0  0  0  0  0  0  0  0
   37.4620   36.0880   18.1760 C   0  0  0  0  0  0  0  0  0  0  0  0
   34.1460   39.1710   23.7720 C   0  0  0  0  0  0  0  0  0  0  0  0
   34.6640   37.9830   21.3420 C   0  0  0  0  0  0  0  0  0  0  0  0
   34.9980   37.3310   20.1050 C   0  0  0  0  0  0  0  0  0  0  0  0
   37.6430   36.7240   15.8960 C   0  0  0  0  0  0  0  0  0  0  0  0
   36.2950   36.4430   15.6640 C   0  0  0  0  0  0  0  0  0  0  0  0
   35.5090   35.9710   16.7210 C   0  0  0  0  0  0  0  0  0  0  0  0
   34.4160   37.2050   22.5120 C   0  0  0  0  0  0  0  0  0  0  0  0
   34.5900   39.3950   21.4800 C   0  0  0  0  0  0  0  0  0  0  0  0
   35.0090   35.9790   20.0650 C   0  0  0  0  0  0  0  0  0  0  0  0
   36.0980   35.7870   17.9740 C   0  0  0  0  0  0  0  0  0  0  0  0
   34.1480   35.0170   23.6810 C   0  0  0  0  0  0  0  0  0  0  0  0
   37.9730   35.9340   19.3910 F   0  0  0  0  0  0  0  0  0  0  0  0
   35.3460   35.1680   18.9820 O   0  0  0  0  0  0  0  0  0  0  0  0
   34.3400   40.0010   22.6520 N   0  0  0  0  0  0  0  0  0  0  0  0
   34.4630   33.9040   21.1480 O   0  0  0  0  0  0  0  0  0  0  0  0
   34.4020   35.8030   22.4400 N   0  0  0  0  0  0  0  0  0  0  0  0
   34.1750   37.7920   23.7300 N   0  0  0  0  0  0  0  0  0  0  0  0
   33.8450   39.7930   24.9650 N   0  0  0  0  0  0  0  0  0  0  0  0
   39.3240   36.7910   17.2920 H   0  0  0  0  0  0  0  0  0  0  0  0
   35.2450   37.9540   19.2430 H   0  0  0  0  0  0  0  0  0  0  0  0
   35.8430   36.6020   14.6830 H   0  0  0  0  0  0  0  0  0  0  0  0
   34.4460   35.7640   16.5600 H   0  0  0  0  0  0  0  0  0  0  0  0
   34.7390   40.0440   20.6010 H   0  0  0  0  0  0  0  0  0  0  0  0
   34.8930   35.3010   24.4730 H   0  0  0  0  0  0  0  0  0  0  0  0
   33.1160   35.2350   24.0690 H   0  0  0  0  0  0  0  0  0  0  0  0
   34.2380   33.9200   23.4700 H   0  0  0  0  0  0  0  0  0  0  0  0
   33.8720   40.8310   25.0210 H   0  0  0  0  0  0  0  0  0  0  0  0
   38.3620   37.2270   14.8960 F   0  0  0  0  0  0  0  0  0  0  0  0
   32.9670   39.4470   28.4630 O   0  0  0  0  0  0  0  0  0  0  0  0
   34.3610   39.8640   28.5440 C   0  0  0  0  0  0  0  0  0  0  0  0
   35.0130   39.5740   27.1830 C   0  0  0  0  0  0  0  0  0  0  0  0
   33.8540   39.0910   26.2710 C   0  0  1  0  0  0  0  0  0  0  0  0
   32.5710   39.4550   27.0710 C   0  0  0  0  0  0  0  0  0  0  0  0
   34.7850   39.2550   29.3710 H   0  0  0  0  0  0  0  0  0  0  0  0
   34.3700   40.9510   28.7840 H   0  0  0  0  0  0  0  0  0  0  0  0
   35.4880   40.5000   26.7810 H   0  0  0  0  0  0  0  0  0  0  0  0
   35.7980   38.7900   27.2660 H   0  0  0  0  0  0  0  0  0  0  0  0
   33.9180   37.9800   26.1170 H   0  0  0  0  0  0  0  0  0  0  0  0
   31.7760   38.6840   26.9950 H   0  0  0  0  0  0  0  0  0  0  0  0
   32.2030   40.4750   26.8180 H   0  0  0  0  0  0  0  0  0  0  0  0
  1  3  2  0  0  0  0
  1  7  1  0  0  0  0
  1 22  1  0  0  0  0
  2 12  1  0  0  0  0
  2 18  2  0  0  0  0
  2 19  1  0  0  0  0
  3 13  1  0  0  0  0
  3 15  1  0  0  0  0
  4 17  2  0  0  0  0
  4 20  1  0  0  0  0
  4 21  1  0  0  0  0
  5  6  1  0  0  0  0
  5 10  1  0  0  0  0
  5 11  2  0  0  0  0
  6 12  2  0  0  0  0
  6 23  1  0  0  0  0
  7  8  2  0  0  0  0
  7 31  1  0  0  0  0
  8  9  1  0  0  0  0
  8 24  1  0  0  0  0
  9 13  2  0  0  0  0
  9 25  1  0  0  0  0
 10 19  1  0  0  0  0
 10 20  2  0  0  0  0
 11 17  1  0  0  0  0
 11 26  1  0  0  0  0
 12 16  1  0  0  0  0
 13 16  1  0  0  0  0
 14 19  1  0  0  0  0
 14 27  1  0  0  0  0
 14 28  1  0  0  0  0
 14 29  1  0  0  0  0
 21 30  1  0  0  0  0
 21 35  1  0  0  0  0
 32 33  1  0  0  0  0
 32 36  1  0  0  0  0
 33 34  1  0  0  0  0
 33 37  1  0  0  0  0
 33 38  1  0  0  0  0
 34 35  1  0  0  0  0
 34 39  1  0  0  0  0
 34 40  1  0  0  0  0
 35 36  1  0  0  0  0
 35 41  1  1  0  0  0
 36 42  1  0  0  0  0
 36 43  1  0  0  0  0
M  END
$$$$
