CAT-13f
 OpenBabel02232411143D
Structure written by MMmdl.
 49 52  0  0  1  0  0  0  0  0999 V2000
   11.6250   -1.9080    1.1240 C   0  0  0  0  0  0  0  0  0  0  0  0
   12.9570   -1.7670    0.4980 N   0  0  0  0  0  0  0  0  0  0  0  0
   14.1660   -2.0060    1.1600 C   0  0  0  0  0  0  0  0  0  0  0  0
   14.3390   -2.2250    2.4960 N   0  0  0  0  0  0  0  0  0  0  0  0
   15.2210   -1.9900    0.2370 N   0  3  0  0  0  0  0  0  0  0  0  0
   14.6800   -2.1230   -1.1730 C   0  0  1  0  0  0  0  0  0  0  0  0
   15.2910   -1.0800   -2.0940 C   0  0  0  0  0  0  0  0  0  0  0  0
   15.9230   -1.4060   -3.3010 C   0  0  0  0  0  0  0  0  0  0  0  0
   16.3640   -0.3870   -4.1520 C   0  0  0  0  0  0  0  0  0  0  0  0
   16.1880    0.9570   -3.8150 C   0  0  0  0  0  0  0  0  0  0  0  0
   15.5860    1.2970   -2.5930 C   0  0  0  0  0  0  0  0  0  0  0  0
   15.3580    2.6970   -2.1730 C   0  0  0  0  0  0  0  0  0  0  0  0
   14.8860    3.6600   -3.0770 C   0  0  0  0  0  0  0  0  0  0  0  0
   14.5410    4.9390   -2.6240 C   0  0  0  0  0  0  0  0  0  0  0  0
   14.6380    5.2620   -1.2680 C   0  0  0  0  0  0  0  0  0  0  0  0
   15.1140    4.2950   -0.3800 C   0  0  0  0  0  0  0  0  0  0  0  0
   15.1200    4.6150    1.3150 Cl  0  0  0  0  0  0  0  0  0  0  0  0
   15.5230    3.0370   -0.8180 C   0  0  0  0  0  0  0  0  0  0  0  0
   15.1360    0.2690   -1.7490 C   0  0  0  0  0  0  0  0  0  0  0  0
   14.7600   -3.5820   -1.6980 C   0  0  0  0  0  0  0  0  0  0  0  0
   16.2110   -4.1050   -1.6210 C   0  0  0  0  0  0  0  0  0  0  0  0
   16.2560   -5.1630   -0.5030 C   0  0  0  0  0  0  0  0  0  0  0  0
   14.8550   -5.2310    0.1320 C   0  0  0  0  0  0  0  0  0  0  0  0
   13.9060   -4.5850   -0.8880 C   0  0  0  0  0  0  0  0  0  0  0  0
   13.1720   -1.7720   -0.9650 C   0  0  0  0  0  0  0  0  0  0  0  0
   12.2960   -1.5250   -1.7310 O   0  0  0  0  0  0  0  0  0  0  0  0
   11.0590   -0.9470    0.9830 H   0  0  0  0  0  0  0  0  0  0  0  0
   11.0680   -2.7540    0.6390 H   0  0  0  0  0  0  0  0  0  0  0  0
   11.7160   -2.1270    2.2170 H   0  0  0  0  0  0  0  0  0  0  0  0
   13.6540   -1.8780    3.2120 H   0  0  0  0  0  0  0  0  0  0  0  0
   16.1220   -2.4540    0.5360 H   0  0  0  0  0  0  0  0  0  0  0  0
   16.0770   -2.4400   -3.6080 H   0  0  0  0  0  0  0  0  0  0  0  0
   16.8510   -0.6550   -5.0960 H   0  0  0  0  0  0  0  0  0  0  0  0
   16.5190    1.7300   -4.5130 H   0  0  0  0  0  0  0  0  0  0  0  0
   14.7610    3.4100   -4.1350 H   0  0  0  0  0  0  0  0  0  0  0  0
   14.1630    5.6790   -3.3390 H   0  0  0  0  0  0  0  0  0  0  0  0
   14.3270    6.2420   -0.9090 H   0  0  0  0  0  0  0  0  0  0  0  0
   15.9430    2.3120   -0.1170 H   0  0  0  0  0  0  0  0  0  0  0  0
   14.6440    0.5140   -0.8120 H   0  0  0  0  0  0  0  0  0  0  0  0
   14.3950   -3.5810   -2.7550 H   0  0  0  0  0  0  0  0  0  0  0  0
   16.5110   -4.5480   -2.5900 H   0  0  0  0  0  0  0  0  0  0  0  0
   16.9280   -3.2850   -1.3830 H   0  0  0  0  0  0  0  0  0  0  0  0
   16.5430   -6.1540   -0.8980 H   0  0  0  0  0  0  0  0  0  0  0  0
   17.0140   -4.8430    0.2330 H   0  0  0  0  0  0  0  0  0  0  0  0
   14.5510   -6.2790    0.3430 H   0  0  0  0  0  0  0  0  0  0  0  0
   14.8390   -4.6560    1.0850 H   0  0  0  0  0  0  0  0  0  0  0  0
   13.0290   -4.1410   -0.3830 H   0  0  0  0  0  0  0  0  0  0  0  0
   13.5280   -5.3640   -1.5880 H   0  0  0  0  0  0  0  0  0  0  0  0
   15.3220   -2.3040    2.8790 H   0  0  0  0  0  0  0  0  0  0  0  0
  1  2  1  0  0  0  0
  1 27  1  0  0  0  0
  1 28  1  0  0  0  0
  1 29  1  0  0  0  0
  2  3  1  0  0  0  0
  2 25  1  0  0  0  0
  3  4  1  0  0  0  0
  3  5  2  0  0  0  0
  4 30  1  0  0  0  0
  4 49  1  0  0  0  0
  5  6  1  0  0  0  0
  5 31  1  0  0  0  0
  6  7  1  6  0  0  0
  6 20  1  0  0  0  0
  6 25  1  0  0  0  0
  7  8  2  0  0  0  0
  7 19  1  0  0  0  0
  8  9  1  0  0  0  0
  8 32  1  0  0  0  0
  9 10  2  0  0  0  0
  9 33  1  0  0  0  0
 10 11  1  0  0  0  0
 10 34  1  0  0  0  0
 11 12  1  0  0  0  0
 11 19  2  0  0  0  0
 12 13  2  0  0  0  0
 12 18  1  0  0  0  0
 13 14  1  0  0  0  0
 13 35  1  0  0  0  0
 14 15  2  0  0  0  0
 14 36  1  0  0  0  0
 15 16  1  0  0  0  0
 15 37  1  0  0  0  0
 16 17  1  0  0  0  0
 16 18  2  0  0  0  0
 18 38  1  0  0  0  0
 19 39  1  0  0  0  0
 20 21  1  0  0  0  0
 20 24  1  0  0  0  0
 20 40  1  0  0  0  0
 21 22  1  0  0  0  0
 21 41  1  0  0  0  0
 21 42  1  0  0  0  0
 22 23  1  0  0  0  0
 22 43  1  0  0  0  0
 22 44  1  0  0  0  0
 23 24  1  0  0  0  0
 23 45  1  0  0  0  0
 23 46  1  0  0  0  0
 24 47  1  0  0  0  0
 24 48  1  0  0  0  0
 25 26  2  0  0  0  0
M  CHG  1   5   1
M  END
$$$$
