p38a_2u
 OpenBabel02232411163D
Structure written by MMmdl.
 64 68  0  0  0  0  0  0  0  0999 V2000
   38.2260   36.4860   17.2480 C   0  0  0  0  0  0  0  0  0  0  0  0
   34.5220   35.1610   21.4360 C   0  0  0  0  0  0  0  0  0  0  0  0
   37.4670   36.0650   18.3370 C   0  0  0  0  0  0  0  0  0  0  0  0
   34.0410   39.3190   23.8670 C   0  0  0  0  0  0  0  0  0  0  0  0
   34.6500   38.0390   21.5020 C   0  0  0  0  0  0  0  0  0  0  0  0
   35.0460   37.3470   20.3060 C   0  0  0  0  0  0  0  0  0  0  0  0
   37.5490   36.6090   16.0270 C   0  0  0  0  0  0  0  0  0  0  0  0
   36.1950   36.3090   15.8640 C   0  0  0  0  0  0  0  0  0  0  0  0
   35.4570   35.8790   16.9730 C   0  0  0  0  0  0  0  0  0  0  0  0
   34.2740   37.3020   22.6630 C   0  0  0  0  0  0  0  0  0  0  0  0
   34.6340   39.4570   21.6040 C   0  0  0  0  0  0  0  0  0  0  0  0
   35.0220   35.9950   20.3050 C   0  0  0  0  0  0  0  0  0  0  0  0
   36.0990   35.7460   18.2080 C   0  0  0  0  0  0  0  0  0  0  0  0
   38.0330   35.9600   19.5320 F   0  0  0  0  0  0  0  0  0  0  0  0
   35.4070   35.1460   19.2690 O   0  0  0  0  0  0  0  0  0  0  0  0
   34.3440   40.1090   22.7400 N   0  0  0  0  0  0  0  0  0  0  0  0
   34.3910   33.9570   21.3910 O   0  0  0  0  0  0  0  0  0  0  0  0
   34.1780   35.8940   22.6260 N   0  0  0  0  0  0  0  0  0  0  0  0
   33.9940   37.9390   23.8440 N   0  0  0  0  0  0  0  0  0  0  0  0
   33.7110   39.9690   25.0350 N   0  0  0  0  0  0  0  0  0  0  0  0
   39.2850   36.7450   17.3480 H   0  0  0  0  0  0  0  0  0  0  0  0
   35.3640   37.9400   19.4460 H   0  0  0  0  0  0  0  0  0  0  0  0
   35.7020   36.4190   14.8950 H   0  0  0  0  0  0  0  0  0  0  0  0
   34.3880   35.6660   16.8680 H   0  0  0  0  0  0  0  0  0  0  0  0
   34.8630   40.0700   20.7170 H   0  0  0  0  0  0  0  0  0  0  0  0
   33.8510   40.9950   25.1080 H   0  0  0  0  0  0  0  0  0  0  0  0
   38.2270   37.0700   14.9780 F   0  0  0  0  0  0  0  0  0  0  0  0
   32.4990   39.3960   28.6130 C   0  0  0  0  0  0  0  0  0  0  0  0
   32.5720   40.0260   27.2170 C   0  0  0  0  0  0  0  0  0  0  0  0
   33.5710   39.2460   26.3370 C   0  0  0  0  0  0  0  0  0  0  0  0
   34.9390   39.1330   27.0450 C   0  0  0  0  0  0  0  0  0  0  0  0
   34.7520   38.5460   28.4490 C   0  0  0  0  0  0  0  0  0  0  0  0
   33.8060   39.3150   29.2280 O   0  0  0  0  0  0  0  0  0  0  0  0
   32.0550   38.3750   28.5680 H   0  0  0  0  0  0  0  0  0  0  0  0
   31.9470   40.0560   29.3220 H   0  0  0  0  0  0  0  0  0  0  0  0
   32.8960   41.0890   27.3110 H   0  0  0  0  0  0  0  0  0  0  0  0
   31.5630   40.0060   26.7400 H   0  0  0  0  0  0  0  0  0  0  0  0
   33.1630   38.2150   26.1390 H   0  0  0  0  0  0  0  0  0  0  0  0
   35.6140   38.4650   26.4580 H   0  0  0  0  0  0  0  0  0  0  0  0
   35.4130   40.1410   27.1150 H   0  0  0  0  0  0  0  0  0  0  0  0
   34.4000   37.4890   28.3930 H   0  0  0  0  0  0  0  0  0  0  0  0
   35.6850   38.6350   29.0510 H   0  0  0  0  0  0  0  0  0  0  0  0
   34.1260   33.6120   25.7570 C   0  0  0  0  0  0  0  0  0  0  0  0
   34.7080   34.2430   24.4690 C   0  0  0  0  0  0  0  0  0  0  0  0
   33.6490   35.1720   23.8470 C   0  0  0  0  0  0  0  0  0  0  0  0
   32.3830   34.3630   23.5070 C   0  0  0  0  0  0  0  0  0  0  0  0
   31.8290   33.7390   24.8030 C   0  0  0  0  0  0  0  0  0  0  0  0
   33.9710   34.4260   26.5200 H   0  0  0  0  0  0  0  0  0  0  0  0
   34.8920   32.8940   26.1460 H   0  0  0  0  0  0  0  0  0  0  0  0
   34.9900   33.4330   23.7560 H   0  0  0  0  0  0  0  0  0  0  0  0
   35.6180   34.8250   24.7460 H   0  0  0  0  0  0  0  0  0  0  0  0
   33.3750   35.9520   24.6200 H   0  0  0  0  0  0  0  0  0  0  0  0
   31.6010   35.0310   23.0750 H   0  0  0  0  0  0  0  0  0  0  0  0
   32.6220   33.5550   22.7750 H   0  0  0  0  0  0  0  0  0  0  0  0
   31.4950   34.5690   25.4860 H   0  0  0  0  0  0  0  0  0  0  0  0
   30.9500   33.0980   24.5260 H   0  0  0  0  0  0  0  0  0  0  0  0
   32.8530   32.8730   25.4750 N   0  0  0  0  0  0  0  0  0  0  0  0
   32.2180   31.8500   26.7230 S   0  0  0  0  0  0  0  0  0  0  0  0
   31.2150   30.9850   26.0670 O   0  0  0  0  0  0  0  0  0  0  0  0
   31.6280   32.6440   27.8170 O   0  0  0  0  0  0  0  0  0  0  0  0
   33.5670   30.9200   27.2910 C   0  0  0  0  0  0  0  0  0  0  0  0
   34.2480   31.5150   27.9560 H   0  0  0  0  0  0  0  0  0  0  0  0
   33.2210   30.0520   27.9210 H   0  0  0  0  0  0  0  0  0  0  0  0
   34.1660   30.4810   26.4550 H   0  0  0  0  0  0  0  0  0  0  0  0
  1  3  2  0  0  0  0
  1  7  1  0  0  0  0
  1 21  1  0  0  0  0
  2 12  1  0  0  0  0
  2 17  2  0  0  0  0
  2 18  1  0  0  0  0
  3 13  1  0  0  0  0
  3 14  1  0  0  0  0
  4 16  2  0  0  0  0
  4 19  1  0  0  0  0
  4 20  1  0  0  0  0
  5  6  1  0  0  0  0
  5 10  1  0  0  0  0
  5 11  2  0  0  0  0
  6 12  2  0  0  0  0
  6 22  1  0  0  0  0
  7  8  2  0  0  0  0
  7 27  1  0  0  0  0
  8  9  1  0  0  0  0
  8 23  1  0  0  0  0
  9 13  2  0  0  0  0
  9 24  1  0  0  0  0
 10 18  1  0  0  0  0
 10 19  2  0  0  0  0
 11 16  1  0  0  0  0
 11 25  1  0  0  0  0
 12 15  1  0  0  0  0
 13 15  1  0  0  0  0
 18 45  1  0  0  0  0
 20 26  1  0  0  0  0
 20 30  1  0  0  0  0
 28 29  1  0  0  0  0
 28 33  1  0  0  0  0
 28 34  1  0  0  0  0
 28 35  1  0  0  0  0
 29 30  1  0  0  0  0
 29 36  1  0  0  0  0
 29 37  1  0  0  0  0
 30 31  1  0  0  0  0
 30 38  1  0  0  0  0
 31 32  1  0  0  0  0
 31 39  1  0  0  0  0
 31 40  1  0  0  0  0
 32 33  1  0  0  0  0
 32 41  1  0  0  0  0
 32 42  1  0  0  0  0
 43 44  1  0  0  0  0
 43 48  1  0  0  0  0
 43 49  1  0  0  0  0
 43 57  1  0  0  0  0
 44 45  1  0  0  0  0
 44 50  1  0  0  0  0
 44 51  1  0  0  0  0
 45 46  1  0  0  0  0
 45 52  1  0  0  0  0
 46 47  1  0  0  0  0
 46 53  1  0  0  0  0
 46 54  1  0  0  0  0
 47 55  1  0  0  0  0
 47 56  1  0  0  0  0
 47 57  1  0  0  0  0
 57 58  1  0  0  0  0
 58 59  2  0  0  0  0
 58 60  2  0  0  0  0
 58 61  1  0  0  0  0
 61 62  1  0  0  0  0
 61 63  1  0  0  0  0
 61 64  1  0  0  0  0
M  END
$$$$
