p38a_2ee
 OpenBabel02232411163D
Structure written by MMmdl.
 52 55  0  0  0  0  0  0  0  0999 V2000
   36.3590   36.0400   15.7930 C   0  0  0  0  0  0  0  0  0  0  0  0
   34.6040   35.0480   21.3660 C   0  0  0  0  0  0  0  0  0  0  0  0
   35.6950   35.5680   16.9210 C   0  0  0  0  0  0  0  0  0  0  0  0
   34.1130   39.1680   23.8530 C   0  0  0  0  0  0  0  0  0  0  0  0
   34.7970   37.9140   21.4890 C   0  0  0  0  0  0  0  0  0  0  0  0
   35.2220   37.2320   20.2970 C   0  0  0  0  0  0  0  0  0  0  0  0
   37.6500   36.5450   15.9950 C   0  0  0  0  0  0  0  0  0  0  0  0
   38.2880   36.5560   17.2380 C   0  0  0  0  0  0  0  0  0  0  0  0
   37.5840   36.1110   18.3640 C   0  0  0  0  0  0  0  0  0  0  0  0
   34.4100   37.1700   22.6430 C   0  0  0  0  0  0  0  0  0  0  0  0
   34.7610   39.3300   21.6000 C   0  0  0  0  0  0  0  0  0  0  0  0
   35.1580   35.8810   20.2640 C   0  0  0  0  0  0  0  0  0  0  0  0
   36.2860   35.6200   18.2000 C   0  0  0  0  0  0  0  0  0  0  0  0
   34.0830   35.0020   23.8360 C   0  0  0  0  0  0  0  0  0  0  0  0
   34.4820   35.0420   16.8180 F   0  0  0  0  0  0  0  0  0  0  0  0
   35.5420   35.0300   19.2290 O   0  0  0  0  0  0  0  0  0  0  0  0
   34.4320   39.9660   22.7330 N   0  0  0  0  0  0  0  0  0  0  0  0
   34.3550   33.8650   21.2980 O   0  0  0  0  0  0  0  0  0  0  0  0
   34.3560   35.7680   22.5880 N   0  0  0  0  0  0  0  0  0  0  0  0
   34.0620   37.7880   23.8200 N   0  0  0  0  0  0  0  0  0  0  0  0
   33.8740   39.8460   25.0260 N   0  0  0  0  0  0  0  0  0  0  0  0
   35.8910   36.0420   14.8060 H   0  0  0  0  0  0  0  0  0  0  0  0
   35.5980   37.8340   19.4660 H   0  0  0  0  0  0  0  0  0  0  0  0
   39.3080   36.9360   17.3420 H   0  0  0  0  0  0  0  0  0  0  0  0
   38.0480   36.1760   19.3510 H   0  0  0  0  0  0  0  0  0  0  0  0
   35.0030   39.9550   20.7250 H   0  0  0  0  0  0  0  0  0  0  0  0
   34.8880   35.2170   24.5890 H   0  0  0  0  0  0  0  0  0  0  0  0
   33.0960   35.3120   24.2700 H   0  0  0  0  0  0  0  0  0  0  0  0
   34.0660   33.9020   23.6210 H   0  0  0  0  0  0  0  0  0  0  0  0
   33.8650   40.8860   25.0090 H   0  0  0  0  0  0  0  0  0  0  0  0
   38.2840   37.0730   14.9490 F   0  0  0  0  0  0  0  0  0  0  0  0
   33.6700   37.6170   28.1750 C   0  0  0  0  0  0  0  0  0  0  0  0
   34.2870   38.2340   26.9040 C   0  0  0  0  0  0  0  0  0  0  0  0
   33.3230   39.2690   26.2900 C   0  0  0  0  0  0  0  0  0  0  0  0
   31.9030   38.6970   26.0800 C   0  0  0  0  0  0  0  0  0  0  0  0
   31.3800   38.0600   27.3810 C   0  0  0  0  0  0  0  0  0  0  0  0
   32.3240   37.0320   27.9150 N   0  0  0  0  0  0  0  0  0  0  0  0
   33.5490   38.4160   28.9590 H   0  0  0  0  0  0  0  0  0  0  0  0
   34.3680   36.8450   28.5890 H   0  0  0  0  0  0  0  0  0  0  0  0
   34.5160   37.4230   26.1730 H   0  0  0  0  0  0  0  0  0  0  0  0
   35.2470   38.7370   27.1740 H   0  0  0  0  0  0  0  0  0  0  0  0
   33.2580   40.1510   26.9970 H   0  0  0  0  0  0  0  0  0  0  0  0
   31.2180   39.5230   25.7750 H   0  0  0  0  0  0  0  0  0  0  0  0
   31.9210   37.9320   25.2690 H   0  0  0  0  0  0  0  0  0  0  0  0
   31.2670   38.8490   28.1720 H   0  0  0  0  0  0  0  0  0  0  0  0
   30.3810   37.5890   27.1930 H   0  0  0  0  0  0  0  0  0  0  0  0
   32.1870   35.6920   27.4640 C   0  0  0  0  0  0  0  0  0  0  0  0
   31.1250   35.3360   26.9650 O   0  0  0  0  0  0  0  0  0  0  0  0
   33.2930   34.7190   27.7440 C   0  0  0  0  0  0  0  0  0  0  0  0
   34.2200   34.9730   27.1690 H   0  0  0  0  0  0  0  0  0  0  0  0
   33.5730   34.7050   28.8290 H   0  0  0  0  0  0  0  0  0  0  0  0
   32.9940   33.6790   27.4630 H   0  0  0  0  0  0  0  0  0  0  0  0
  1  3  2  0  0  0  0
  1  7  1  0  0  0  0
  1 22  1  0  0  0  0
  2 12  1  0  0  0  0
  2 18  2  0  0  0  0
  2 19  1  0  0  0  0
  3 13  1  0  0  0  0
  3 15  1  0  0  0  0
  4 17  2  0  0  0  0
  4 20  1  0  0  0  0
  4 21  1  0  0  0  0
  5  6  1  0  0  0  0
  5 10  1  0  0  0  0
  5 11  2  0  0  0  0
  6 12  2  0  0  0  0
  6 23  1  0  0  0  0
  7  8  2  0  0  0  0
  7 31  1  0  0  0  0
  8  9  1  0  0  0  0
  8 24  1  0  0  0  0
  9 13  2  0  0  0  0
  9 25  1  0  0  0  0
 10 19  1  0  0  0  0
 10 20  2  0  0  0  0
 11 17  1  0  0  0  0
 11 26  1  0  0  0  0
 12 16  1  0  0  0  0
 13 16  1  0  0  0  0
 14 19  1  0  0  0  0
 14 27  1  0  0  0  0
 14 28  1  0  0  0  0
 14 29  1  0  0  0  0
 21 30  1  0  0  0  0
 21 34  1  0  0  0  0
 32 33  1  0  0  0  0
 32 37  1  0  0  0  0
 32 38  1  0  0  0  0
 32 39  1  0  0  0  0
 33 34  1  0  0  0  0
 33 40  1  0  0  0  0
 33 41  1  0  0  0  0
 34 35  1  0  0  0  0
 34 42  1  0  0  0  0
 35 36  1  0  0  0  0
 35 43  1  0  0  0  0
 35 44  1  0  0  0  0
 36 37  1  0  0  0  0
 36 45  1  0  0  0  0
 36 46  1  0  0  0  0
 37 47  1  0  0  0  0
 47 48  2  0  0  0  0
 47 49  1  0  0  0  0
 49 50  1  0  0  0  0
 49 51  1  0  0  0  0
 49 52  1  0  0  0  0
M  END
$$$$
