48
                    3D
 Schrodinger Suite 2022-3.
 42 45  0  0  1  0  0  0  0  0999 V2000
    3.1950  -48.0100    7.1950 O   0  0  0  0  0  0  0  0  0  0  0  0
    2.8270  -48.9940    6.5410 C   0  0  0  0  0  0  0  0  0  0  0  0
    3.5530  -49.7820    5.9030 O   0  5  0  0  0  0  0  0  0  0  0  0
    1.3260  -49.3490    6.5080 C   0  0  0  0  0  0  0  0  0  0  0  0
   -0.4490  -50.7860    6.6890 C   0  0  0  0  0  0  0  0  0  0  0  0
   -1.3010  -51.8840    6.9020 C   0  0  0  0  0  0  0  0  0  0  0  0
   -2.6480  -51.7120    6.6180 C   0  0  0  0  0  0  0  0  0  0  0  0
   -3.1450  -50.4790    6.1340 C   0  0  0  0  0  0  0  0  0  0  0  0
   -2.3080  -49.3900    5.9260 C   0  0  0  0  0  0  0  0  0  0  0  0
   -0.9370  -49.5200    6.2020 C   0  0  0  0  0  0  0  0  0  0  0  0
    0.2020  -48.6310    6.1110 C   0  0  0  0  0  0  0  0  0  0  0  0
    0.1040  -47.2180    5.6590 C   0  0  0  0  0  0  0  0  0  0  0  0
    0.0480  -46.2080    6.8190 C   0  0  0  0  0  0  0  0  0  0  0  0
   -1.1560  -46.3620    7.7440 C   0  0  0  0  0  0  0  0  0  0  0  0
   -2.2680  -45.6870    7.0410 O   0  0  0  0  0  0  0  0  0  0  0  0
   -3.4880  -45.6810    7.6410 C   0  0  0  0  0  0  0  0  0  0  0  0
   -6.1370  -45.5240    8.7210 C   0  0  0  0  0  0  0  0  0  0  0  0
   -5.1350  -46.2400    9.3500 C   0  0  0  0  0  0  0  0  0  0  0  0
   -3.8230  -46.3270    8.8330 C   0  0  0  0  0  0  0  0  0  0  0  0
   -0.9250  -52.8360    7.2770 H   0  0  0  0  0  0  0  0  0  0  0  0
   -3.3450  -52.5370    6.7690 H   0  0  0  0  0  0  0  0  0  0  0  0
   -4.2110  -50.3910    5.9220 H   0  0  0  0  0  0  0  0  0  0  0  0
   -2.7190  -48.4510    5.5540 H   0  0  0  0  0  0  0  0  0  0  0  0
   -0.8250  -47.0990    5.0420 H   0  0  0  0  0  0  0  0  0  0  0  0
    0.9820  -46.9550    5.0190 H   0  0  0  0  0  0  0  0  0  0  0  0
    0.0260  -45.1760    6.3960 H   0  0  0  0  0  0  0  0  0  0  0  0
    0.9660  -46.3310    7.4470 H   0  0  0  0  0  0  0  0  0  0  0  0
   -1.0130  -45.8010    8.6920 H   0  0  0  0  0  0  0  0  0  0  0  0
   -1.4540  -47.4210    7.8930 H   0  0  0  0  0  0  0  0  0  0  0  0
   -3.1050  -46.9200    9.3910 H   0  0  0  0  0  0  0  0  0  0  0  0
   -5.3660  -46.7700   10.2780 H   0  0  0  0  0  0  0  0  0  0  0  0
   -7.1410  -45.4600    9.1250 H   0  0  0  0  0  0  0  0  0  0  0  0
    0.9350  -50.6520    6.8780 N   0  0  0  0  0  0  0  0  0  0  0  0
    1.5330  -51.4120    7.1830 H   0  0  0  0  0  0  0  0  0  0  0  0
   -5.8150  -43.7770    5.5070 C   0  0  0  0  0  0  0  0  0  0  0  0
   -6.6090  -44.1680    6.6190 N   0  0  0  0  0  0  0  0  0  0  0  0
   -5.8020  -44.8930    7.5040 C   0  0  0  0  0  0  0  0  0  0  0  0
   -4.4820  -44.9380    6.9440 C   0  0  0  0  0  0  0  0  0  0  0  0
   -4.5230  -44.2260    5.6950 C   0  0  0  0  0  0  0  0  0  0  0  0
   -7.5990  -44.0150    6.7030 H   0  0  0  0  0  0  0  0  0  0  0  0
   -3.6960  -44.0830    5.0250 H   0  0  0  0  0  0  0  0  0  0  0  0
   -6.2420  -43.2150    4.6980 H   0  0  0  0  0  0  0  0  0  0  0  0
  1  2  2  0  0  0  0
  2  3  1  0  0  0  0
  2  4  1  0  0  0  0
  4 11  2  0  0  0  0
  4 33  1  0  0  0  0
  5  6  1  0  0  0  0
  5 10  2  0  0  0  0
  5 33  1  0  0  0  0
  6  7  2  0  0  0  0
  6 20  1  0  0  0  0
  7  8  1  0  0  0  0
  7 21  1  0  0  0  0
  8  9  2  0  0  0  0
  8 22  1  0  0  0  0
  9 10  1  0  0  0  0
  9 23  1  0  0  0  0
 10 11  1  0  0  0  0
 11 12  1  0  0  0  0
 12 24  1  0  0  0  0
 12 25  1  0  0  0  0
 12 13  1  0  0  0  0
 13 14  1  0  0  0  0
 13 26  1  0  0  0  0
 13 27  1  0  0  0  0
 14 15  1  0  0  0  0
 14 28  1  0  0  0  0
 14 29  1  0  0  0  0
 15 16  1  0  0  0  0
 16 19  2  0  0  0  0
 16 38  1  0  0  0  0
 17 18  2  0  0  0  0
 17 32  1  0  0  0  0
 17 37  1  0  0  0  0
 18 19  1  0  0  0  0
 18 31  1  0  0  0  0
 19 30  1  0  0  0  0
 33 34  1  0  0  0  0
 35 36  1  0  0  0  0
 35 39  2  0  0  0  0
 35 42  1  0  0  0  0
 36 37  1  0  0  0  0
 36 40  1  0  0  0  0
 37 38  2  0  0  0  0
 38 39  1  0  0  0  0
 39 41  1  0  0  0  0
M  CHG  1   3  -1
M  END
$$$$
