18627-1
 OpenBabel02232411163D
Structure written by MMmdl.
 38 39  0  0  0  0  0  0  0  0999 V2000
   24.4620   11.0270   30.7720 C   0  0  0  0  0  0  0  0  0  0  0  0
   23.1220   11.2640   30.1120 C   0  0  0  0  0  0  0  0  0  0  0  0
   22.0450   11.2940   31.1260 O   0  0  0  0  0  0  0  0  0  0  0  0
   21.4770   10.1360   31.5280 C   0  0  0  0  0  0  0  0  0  0  0  0
   21.9660    8.9530   31.0860 N   0  0  0  0  0  0  0  0  0  0  0  0
   21.2830    7.8020   31.4510 C   0  0  0  0  0  0  0  0  0  0  0  0
   20.1520    7.8200   32.2600 C   0  0  0  0  0  0  0  0  0  0  0  0
   19.6500    9.0660   32.7260 C   0  0  0  0  0  0  0  0  0  0  0  0
   18.5110    9.0980   33.4880 N   0  0  0  0  0  0  0  0  0  0  0  0
   20.3300   10.2730   32.3660 C   0  0  0  0  0  0  0  0  0  0  0  0
   19.9110   11.5660   32.7450 C   0  0  0  0  0  0  0  0  0  0  0  0
   19.6200   12.6560   33.0160 N   0  0  0  0  0  0  0  0  0  0  0  0
   21.8690    6.6450   30.8800 N   0  0  0  0  0  0  0  0  0  0  0  0
   21.3440    5.3290   30.8830 C   0  0  0  0  0  0  0  0  0  0  0  0
   20.3160    5.0360   31.4550 O   0  0  0  0  0  0  0  0  0  0  0  0
   22.1620    4.3530   30.0480 C   0  0  0  0  0  0  0  0  0  0  0  0
   23.4960    4.0350   30.6680 C   0  0  0  0  0  0  0  0  0  0  0  0
   24.6280    4.8020   30.3490 C   0  0  0  0  0  0  0  0  0  0  0  0
   25.8660    4.5170   30.9310 C   0  0  0  0  0  0  0  0  0  0  0  0
   25.9570    3.4540   31.8320 C   0  0  0  0  0  0  0  0  0  0  0  0
   27.4800    3.0980   32.5560 Cl  0  0  0  0  0  0  0  0  0  0  0  0
   24.8510    2.6640   32.1510 C   0  0  0  0  0  0  0  0  0  0  0  0
   23.6200    2.9550   31.5580 C   0  0  0  0  0  0  0  0  0  0  0  0
   24.4790   10.0490   31.3100 H   0  0  0  0  0  0  0  0  0  0  0  0
   24.7080   11.8410   31.4870 H   0  0  0  0  0  0  0  0  0  0  0  0
   25.2570   10.9910   29.9850 H   0  0  0  0  0  0  0  0  0  0  0  0
   23.0230   12.3020   29.7110 H   0  0  0  0  0  0  0  0  0  0  0  0
   22.8890   10.4980   29.3390 H   0  0  0  0  0  0  0  0  0  0  0  0
   19.6320    6.8970   32.5250 H   0  0  0  0  0  0  0  0  0  0  0  0
   18.0180    8.2230   33.7540 H   0  0  0  0  0  0  0  0  0  0  0  0
   18.1010    9.9800   33.7940 H   0  0  0  0  0  0  0  0  0  0  0  0
   22.7490    6.8190   30.3540 H   0  0  0  0  0  0  0  0  0  0  0  0
   21.5710    3.4060   29.9300 H   0  0  0  0  0  0  0  0  0  0  0  0
   22.3140    4.7910   29.0260 H   0  0  0  0  0  0  0  0  0  0  0  0
   24.5670    5.6240   29.6300 H   0  0  0  0  0  0  0  0  0  0  0  0
   26.7430    5.1190   30.6740 H   0  0  0  0  0  0  0  0  0  0  0  0
   24.9410    1.8230   32.8480 H   0  0  0  0  0  0  0  0  0  0  0  0
   22.7600    2.3210   31.7860 H   0  0  0  0  0  0  0  0  0  0  0  0
  1  2  1  0  0  0  0
  1 24  1  0  0  0  0
  1 25  1  0  0  0  0
  1 26  1  0  0  0  0
  2  3  1  0  0  0  0
  2 27  1  0  0  0  0
  2 28  1  0  0  0  0
  3  4  1  0  0  0  0
  4 10  2  0  0  0  0
  4  5  1  0  0  0  0
  5  6  2  0  0  0  0
  6  7  1  0  0  0  0
  6 13  1  0  0  0  0
  7  8  2  0  0  0  0
  7 29  1  0  0  0  0
  8  9  1  0  0  0  0
  8 10  1  0  0  0  0
  9 30  1  0  0  0  0
  9 31  1  0  0  0  0
 10 11  1  0  0  0  0
 11 12  3  0  0  0  0
 13 14  1  0  0  0  0
 13 32  1  0  0  0  0
 14 15  2  0  0  0  0
 14 16  1  0  0  0  0
 16 17  1  0  0  0  0
 16 33  1  0  0  0  0
 16 34  1  0  0  0  0
 17 23  2  0  0  0  0
 17 18  1  0  0  0  0
 18 19  2  0  0  0  0
 18 35  1  0  0  0  0
 19 20  1  0  0  0  0
 19 36  1  0  0  0  0
 20 21  1  0  0  0  0
 20 22  2  0  0  0  0
 22 23  1  0  0  0  0
 22 37  1  0  0  0  0
 23 38  1  0  0  0  0
M  END
$$$$
