CAT-13e
 OpenBabel02232411143D
Structure written by MMmdl.
 46 49  0  0  1  0  0  0  0  0999 V2000
   11.6150   -2.3700    1.2120 C   0  0  0  0  0  0  0  0  0  0  0  0
   12.9300   -2.2480    0.5460 N   0  0  0  0  0  0  0  0  0  0  0  0
   14.1490   -2.2030    1.2150 C   0  0  0  0  0  0  0  0  0  0  0  0
   14.3400   -2.2910    2.5600 N   0  0  0  0  0  0  0  0  0  0  0  0
   15.2010   -2.0850    0.2870 N   0  3  0  0  0  0  0  0  0  0  0  0
   14.6960   -2.4380   -1.0990 C   0  0  1  0  0  0  0  0  0  0  0  0
   15.1270   -1.3990   -2.1230 C   0  0  0  0  0  0  0  0  0  0  0  0
   15.5250   -1.7800   -3.4130 C   0  0  0  0  0  0  0  0  0  0  0  0
   15.9190   -0.8100   -4.3380 C   0  0  0  0  0  0  0  0  0  0  0  0
   15.8720    0.5460   -4.0090 C   0  0  0  0  0  0  0  0  0  0  0  0
   15.4230    0.9420   -2.7380 C   0  0  0  0  0  0  0  0  0  0  0  0
   15.2550    2.3740   -2.4060 C   0  0  0  0  0  0  0  0  0  0  0  0
   15.6210    2.8650   -1.1430 C   0  0  0  0  0  0  0  0  0  0  0  0
   15.3300    4.1850   -0.7860 C   0  0  0  0  0  0  0  0  0  0  0  0
   14.7050    5.0410   -1.6970 C   0  0  0  0  0  0  0  0  0  0  0  0
   14.4140    4.5590   -2.9760 C   0  0  0  0  0  0  0  0  0  0  0  0
   13.7070    5.6180   -4.1300 Cl  0  0  0  0  0  0  0  0  0  0  0  0
   14.6650    3.2370   -3.3450 C   0  0  0  0  0  0  0  0  0  0  0  0
   15.0750   -0.0380   -1.7930 C   0  0  0  0  0  0  0  0  0  0  0  0
   15.0540   -3.8850   -1.4800 C   0  0  0  0  0  0  0  0  0  0  0  0
   16.5720   -4.1130   -1.7070 C   0  0  0  0  0  0  0  0  0  0  0  0
   16.5770   -5.1640   -0.5780 C   0  0  0  0  0  0  0  0  0  0  0  0
   15.0620   -4.9510   -0.3480 C   0  0  0  0  0  0  0  0  0  0  0  0
   13.1500   -2.3530   -0.9140 C   0  0  0  0  0  0  0  0  0  0  0  0
   12.2450   -2.3450   -1.6860 O   0  0  0  0  0  0  0  0  0  0  0  0
   11.0280   -3.1930    0.7180 H   0  0  0  0  0  0  0  0  0  0  0  0
   11.0600   -1.3990    1.1210 H   0  0  0  0  0  0  0  0  0  0  0  0
   11.7370   -2.6300    2.2960 H   0  0  0  0  0  0  0  0  0  0  0  0
   13.6270   -1.9650    3.2580 H   0  0  0  0  0  0  0  0  0  0  0  0
   16.1450   -2.4430    0.6090 H   0  0  0  0  0  0  0  0  0  0  0  0
   15.5380   -2.8280   -3.7180 H   0  0  0  0  0  0  0  0  0  0  0  0
   16.2700   -1.1170   -5.3290 H   0  0  0  0  0  0  0  0  0  0  0  0
   16.1910    1.2880   -4.7490 H   0  0  0  0  0  0  0  0  0  0  0  0
   16.1150    2.2080   -0.4250 H   0  0  0  0  0  0  0  0  0  0  0  0
   15.5780    4.5330    0.2210 H   0  0  0  0  0  0  0  0  0  0  0  0
   14.4320    6.0560   -1.4030 H   0  0  0  0  0  0  0  0  0  0  0  0
   14.3940    2.8740   -4.3410 H   0  0  0  0  0  0  0  0  0  0  0  0
   14.7660    0.2560   -0.7900 H   0  0  0  0  0  0  0  0  0  0  0  0
   14.4310   -4.2110   -2.3390 H   0  0  0  0  0  0  0  0  0  0  0  0
   17.1970   -3.2290   -1.4760 H   0  0  0  0  0  0  0  0  0  0  0  0
   16.8240   -4.5090   -2.7000 H   0  0  0  0  0  0  0  0  0  0  0  0
   16.8530   -6.1850   -0.8650 H   0  0  0  0  0  0  0  0  0  0  0  0
   17.2060   -4.8190    0.2490 H   0  0  0  0  0  0  0  0  0  0  0  0
   14.8140   -4.5940    0.6640 H   0  0  0  0  0  0  0  0  0  0  0  0
   14.4370   -5.8310   -0.5870 H   0  0  0  0  0  0  0  0  0  0  0  0
   15.3240   -2.2720    2.9480 H   0  0  0  0  0  0  0  0  0  0  0  0
  1  2  1  0  0  0  0
  1 26  1  0  0  0  0
  1 27  1  0  0  0  0
  1 28  1  0  0  0  0
  2  3  1  0  0  0  0
  2 24  1  0  0  0  0
  3  4  1  0  0  0  0
  3  5  2  0  0  0  0
  4 29  1  0  0  0  0
  4 46  1  0  0  0  0
  5  6  1  0  0  0  0
  5 30  1  0  0  0  0
  6  7  1  6  0  0  0
  6 20  1  0  0  0  0
  6 24  1  0  0  0  0
  7  8  2  0  0  0  0
  7 19  1  0  0  0  0
  8  9  1  0  0  0  0
  8 31  1  0  0  0  0
  9 10  2  0  0  0  0
  9 32  1  0  0  0  0
 10 11  1  0  0  0  0
 10 33  1  0  0  0  0
 11 12  1  0  0  0  0
 11 19  2  0  0  0  0
 12 13  2  0  0  0  0
 12 18  1  0  0  0  0
 13 14  1  0  0  0  0
 13 34  1  0  0  0  0
 14 15  2  0  0  0  0
 14 35  1  0  0  0  0
 15 16  1  0  0  0  0
 15 36  1  0  0  0  0
 16 17  1  0  0  0  0
 16 18  2  0  0  0  0
 18 37  1  0  0  0  0
 19 38  1  0  0  0  0
 20 21  1  0  0  0  0
 20 23  1  0  0  0  0
 20 39  1  0  0  0  0
 21 22  1  0  0  0  0
 21 40  1  0  0  0  0
 21 41  1  0  0  0  0
 22 23  1  0  0  0  0
 22 42  1  0  0  0  0
 22 43  1  0  0  0  0
 23 44  1  0  0  0  0
 23 45  1  0  0  0  0
 24 25  2  0  0  0  0
M  CHG  1   5   1
M  END
$$$$
