p38a_2g
 OpenBabel02232411163D
Structure written by MMmdl.
 46 49  0  0  0  0  0  0  0  0999 V2000
   32.0860   39.5450   26.9380 C   0  0  0  0  0  0  0  0  0  0  0  0
   32.9830   40.2700   27.9510 C   0  0  0  0  0  0  0  0  0  0  0  0
   34.7650   38.6770   27.6870 C   0  0  0  0  0  0  0  0  0  0  0  0
   33.9450   37.8160   26.7260 C   0  0  0  0  0  0  0  0  0  0  0  0
   38.4640   36.5050   17.2370 C   0  0  0  0  0  0  0  0  0  0  0  0
   33.9040   39.3800   28.6140 O   0  0  0  0  0  0  0  0  0  0  0  0
   34.4800   34.9860   20.9140 C   0  0  0  0  0  0  0  0  0  0  0  0
   37.5500   36.0620   18.1890 C   0  0  0  0  0  0  0  0  0  0  0  0
   33.8340   38.9160   23.6700 C   0  0  0  0  0  0  0  0  0  0  0  0
   32.8690   38.6270   25.9760 C   0  0  0  0  0  0  0  0  0  0  0  0
   34.6100   37.8520   21.2440 C   0  0  0  0  0  0  0  0  0  0  0  0
   35.0340   37.2620   20.0040 C   0  0  0  0  0  0  0  0  0  0  0  0
   38.0110   36.7010   15.9250 C   0  0  0  0  0  0  0  0  0  0  0  0
   36.6810   36.4440   15.5830 C   0  0  0  0  0  0  0  0  0  0  0  0
   35.7660   35.9820   16.5370 C   0  0  0  0  0  0  0  0  0  0  0  0
   34.1340   37.0210   22.3020 C   0  0  0  0  0  0  0  0  0  0  0  0
   34.6460   39.2500   21.4940 C   0  0  0  0  0  0  0  0  0  0  0  0
   34.9840   35.9170   19.8700 C   0  0  0  0  0  0  0  0  0  0  0  0
   36.2120   35.7840   17.8450 C   0  0  0  0  0  0  0  0  0  0  0  0
   33.5570   34.7920   23.2570 C   0  0  0  0  0  0  0  0  0  0  0  0
   37.9310   35.8950   19.4520 F   0  0  0  0  0  0  0  0  0  0  0  0
   35.3380   35.1680   18.7490 O   0  0  0  0  0  0  0  0  0  0  0  0
   34.2850   39.7960   22.6650 N   0  0  0  0  0  0  0  0  0  0  0  0
   34.4060   33.7810   20.8050 O   0  0  0  0  0  0  0  0  0  0  0  0
   34.0610   35.6280   22.1310 N   0  0  0  0  0  0  0  0  0  0  0  0
   33.7450   37.5450   23.5080 N   0  0  0  0  0  0  0  0  0  0  0  0
   33.4530   39.4580   24.8730 N   0  0  0  0  0  0  0  0  0  0  0  0
   31.3430   38.9100   27.4810 H   0  0  0  0  0  0  0  0  0  0  0  0
   31.5210   40.3090   26.3500 H   0  0  0  0  0  0  0  0  0  0  0  0
   33.5670   41.0760   27.4540 H   0  0  0  0  0  0  0  0  0  0  0  0
   32.3840   40.6710   28.8000 H   0  0  0  0  0  0  0  0  0  0  0  0
   35.3810   38.0510   28.3710 H   0  0  0  0  0  0  0  0  0  0  0  0
   35.3830   39.4210   27.1350 H   0  0  0  0  0  0  0  0  0  0  0  0
   34.6300   37.3120   26.0000 H   0  0  0  0  0  0  0  0  0  0  0  0
   33.4180   37.0070   27.2970 H   0  0  0  0  0  0  0  0  0  0  0  0
   39.4990   36.7260   17.5020 H   0  0  0  0  0  0  0  0  0  0  0  0
   32.1400   37.9020   25.5060 H   0  0  0  0  0  0  0  0  0  0  0  0
   35.3910   37.9250   19.2120 H   0  0  0  0  0  0  0  0  0  0  0  0
   36.3360   36.6230   14.5640 H   0  0  0  0  0  0  0  0  0  0  0  0
   34.7260   35.7990   16.2570 H   0  0  0  0  0  0  0  0  0  0  0  0
   34.9810   39.9400   20.7020 H   0  0  0  0  0  0  0  0  0  0  0  0
   34.2020   34.9390   24.1650 H   0  0  0  0  0  0  0  0  0  0  0  0
   32.5070   35.0960   23.5180 H   0  0  0  0  0  0  0  0  0  0  0  0
   33.5640   33.7090   22.9700 H   0  0  0  0  0  0  0  0  0  0  0  0
   33.5450   40.4780   25.0340 H   0  0  0  0  0  0  0  0  0  0  0  0
   38.6970   37.0800   15.1680 H   0  0  0  0  0  0  0  0  0  0  0  0
  1  2  1  0  0  0  0
  1 10  1  0  0  0  0
  1 28  1  0  0  0  0
  1 29  1  0  0  0  0
  2  6  1  0  0  0  0
  2 30  1  0  0  0  0
  2 31  1  0  0  0  0
  3  4  1  0  0  0  0
  3  6  1  0  0  0  0
  3 32  1  0  0  0  0
  3 33  1  0  0  0  0
  4 10  1  0  0  0  0
  4 34  1  0  0  0  0
  4 35  1  0  0  0  0
  5  8  2  0  0  0  0
  5 13  1  0  0  0  0
  5 36  1  0  0  0  0
  7 18  1  0  0  0  0
  7 24  2  0  0  0  0
  7 25  1  0  0  0  0
  8 19  1  0  0  0  0
  8 21  1  0  0  0  0
  9 23  2  0  0  0  0
  9 26  1  0  0  0  0
  9 27  1  0  0  0  0
 10 27  1  0  0  0  0
 10 37  1  0  0  0  0
 11 12  1  0  0  0  0
 11 16  1  0  0  0  0
 11 17  2  0  0  0  0
 12 18  2  0  0  0  0
 12 38  1  0  0  0  0
 13 14  2  0  0  0  0
 13 46  1  0  0  0  0
 14 15  1  0  0  0  0
 14 39  1  0  0  0  0
 15 19  2  0  0  0  0
 15 40  1  0  0  0  0
 16 25  1  0  0  0  0
 16 26  2  0  0  0  0
 17 23  1  0  0  0  0
 17 41  1  0  0  0  0
 18 22  1  0  0  0  0
 19 22  1  0  0  0  0
 20 25  1  0  0  0  0
 20 42  1  0  0  0  0
 20 43  1  0  0  0  0
 20 44  1  0  0  0  0
 27 45  1  0  0  0  0
M  END
$$$$
