p38a_2o
 OpenBabel02232411163D
Structure written by MMmdl.
 55 58  0  0  0  0  0  0  0  0999 V2000
   38.2630   36.5430   17.1430 C   0  0  0  0  0  0  0  0  0  0  0  0
   34.5400   35.1080   21.2100 C   0  0  0  0  0  0  0  0  0  0  0  0
   37.4720   36.0840   18.1920 C   0  0  0  0  0  0  0  0  0  0  0  0
   33.9220   39.2160   23.6960 C   0  0  0  0  0  0  0  0  0  0  0  0
   34.5860   37.9920   21.3160 C   0  0  0  0  0  0  0  0  0  0  0  0
   34.9810   37.3230   20.1060 C   0  0  0  0  0  0  0  0  0  0  0  0
   37.6190   36.7200   15.9100 C   0  0  0  0  0  0  0  0  0  0  0  0
   36.2670   36.4400   15.6990 C   0  0  0  0  0  0  0  0  0  0  0  0
   35.4970   35.9650   16.7660 C   0  0  0  0  0  0  0  0  0  0  0  0
   34.2330   37.2290   22.4660 C   0  0  0  0  0  0  0  0  0  0  0  0
   34.5430   39.4060   21.4440 C   0  0  0  0  0  0  0  0  0  0  0  0
   34.9930   35.9710   20.0850 C   0  0  0  0  0  0  0  0  0  0  0  0
   36.1070   35.7770   18.0090 C   0  0  0  0  0  0  0  0  0  0  0  0
   37.9980   35.9320   19.4010 F   0  0  0  0  0  0  0  0  0  0  0  0
   35.3830   35.1460   19.0320 O   0  0  0  0  0  0  0  0  0  0  0  0
   34.2320   40.0310   22.5900 N   0  0  0  0  0  0  0  0  0  0  0  0
   34.4490   33.9010   21.1760 O   0  0  0  0  0  0  0  0  0  0  0  0
   34.2160   35.8210   22.4200 N   0  0  0  0  0  0  0  0  0  0  0  0
   33.9170   37.8360   23.6550 N   0  0  0  0  0  0  0  0  0  0  0  0
   33.5460   39.8370   24.8650 N   0  0  0  0  0  0  0  0  0  0  0  0
   39.3190   36.7930   17.2820 H   0  0  0  0  0  0  0  0  0  0  0  0
   35.2720   37.9360   19.2500 H   0  0  0  0  0  0  0  0  0  0  0  0
   35.7990   36.6010   14.7250 H   0  0  0  0  0  0  0  0  0  0  0  0
   34.4310   35.7620   16.6240 H   0  0  0  0  0  0  0  0  0  0  0  0
   34.7710   40.0440   20.5730 H   0  0  0  0  0  0  0  0  0  0  0  0
   33.6460   40.8650   24.9600 H   0  0  0  0  0  0  0  0  0  0  0  0
   38.3250   37.2190   14.8980 F   0  0  0  0  0  0  0  0  0  0  0  0
   32.0480   38.9820   28.2730 C   0  0  0  0  0  0  0  0  0  0  0  0
   32.1520   39.6390   26.8900 C   0  0  0  0  0  0  0  0  0  0  0  0
   33.3900   39.0900   26.1490 C   0  0  0  0  0  0  0  0  0  0  0  0
   34.6560   39.2670   27.0160 C   0  0  0  0  0  0  0  0  0  0  0  0
   34.4330   38.6360   28.3960 C   0  0  0  0  0  0  0  0  0  0  0  0
   33.2550   39.1690   29.0450 O   0  0  0  0  0  0  0  0  0  0  0  0
   31.8410   37.8900   28.1760 H   0  0  0  0  0  0  0  0  0  0  0  0
   31.2800   39.4850   28.9030 H   0  0  0  0  0  0  0  0  0  0  0  0
   32.2440   40.7450   27.0020 H   0  0  0  0  0  0  0  0  0  0  0  0
   31.2320   39.4170   26.2980 H   0  0  0  0  0  0  0  0  0  0  0  0
   33.2300   37.9980   25.9280 H   0  0  0  0  0  0  0  0  0  0  0  0
   35.5240   38.7710   26.5190 H   0  0  0  0  0  0  0  0  0  0  0  0
   34.8850   40.3550   27.1240 H   0  0  0  0  0  0  0  0  0  0  0  0
   34.3280   37.5290   28.3110 H   0  0  0  0  0  0  0  0  0  0  0  0
   35.2440   38.9200   29.1060 H   0  0  0  0  0  0  0  0  0  0  0  0
   33.7440   35.0510   23.6270 C   0  0  0  0  0  0  0  0  0  0  0  0
   34.2250   34.0350   23.5890 H   0  0  0  0  0  0  0  0  0  0  0  0
   34.0950   35.6010   24.5490 H   0  0  0  0  0  0  0  0  0  0  0  0
   32.2180   34.9380   23.6250 C   0  0  0  0  0  0  0  0  0  0  0  0
   31.7880   35.9750   23.5130 H   0  0  0  0  0  0  0  0  0  0  0  0
   31.8770   34.3730   22.7160 H   0  0  0  0  0  0  0  0  0  0  0  0
   31.5320   34.1890   25.0780 S   0  0  0  0  0  0  0  0  0  0  0  0
   32.5860   33.7840   26.0290 O   0  0  0  0  0  0  0  0  0  0  0  0
   30.7290   33.0070   24.6810 O   0  0  0  0  0  0  0  0  0  0  0  0
   30.5210   35.4310   25.7410 C   0  0  0  0  0  0  0  0  0  0  0  0
   29.7010   35.7430   25.0410 H   0  0  0  0  0  0  0  0  0  0  0  0
   30.0090   35.1230   26.6930 H   0  0  0  0  0  0  0  0  0  0  0  0
   31.0920   36.3610   26.0000 H   0  0  0  0  0  0  0  0  0  0  0  0
  1  3  2  0  0  0  0
  1  7  1  0  0  0  0
  1 21  1  0  0  0  0
  2 12  1  0  0  0  0
  2 17  2  0  0  0  0
  2 18  1  0  0  0  0
  3 13  1  0  0  0  0
  3 14  1  0  0  0  0
  4 16  2  0  0  0  0
  4 19  1  0  0  0  0
  4 20  1  0  0  0  0
  5  6  1  0  0  0  0
  5 10  1  0  0  0  0
  5 11  2  0  0  0  0
  6 12  2  0  0  0  0
  6 22  1  0  0  0  0
  7  8  2  0  0  0  0
  7 27  1  0  0  0  0
  8  9  1  0  0  0  0
  8 23  1  0  0  0  0
  9 13  2  0  0  0  0
  9 24  1  0  0  0  0
 10 18  1  0  0  0  0
 10 19  2  0  0  0  0
 11 16  1  0  0  0  0
 11 25  1  0  0  0  0
 12 15  1  0  0  0  0
 13 15  1  0  0  0  0
 18 43  1  0  0  0  0
 20 26  1  0  0  0  0
 20 30  1  0  0  0  0
 28 29  1  0  0  0  0
 28 33  1  0  0  0  0
 28 34  1  0  0  0  0
 28 35  1  0  0  0  0
 29 30  1  0  0  0  0
 29 36  1  0  0  0  0
 29 37  1  0  0  0  0
 30 31  1  0  0  0  0
 30 38  1  0  0  0  0
 31 32  1  0  0  0  0
 31 39  1  0  0  0  0
 31 40  1  0  0  0  0
 32 33  1  0  0  0  0
 32 41  1  0  0  0  0
 32 42  1  0  0  0  0
 43 44  1  0  0  0  0
 43 45  1  0  0  0  0
 43 46  1  0  0  0  0
 46 47  1  0  0  0  0
 46 48  1  0  0  0  0
 46 49  1  0  0  0  0
 49 50  2  0  0  0  0
 49 51  2  0  0  0  0
 49 52  1  0  0  0  0
 52 53  1  0  0  0  0
 52 54  1  0  0  0  0
 52 55  1  0  0  0  0
M  END
$$$$
