p38a_2aa
 OpenBabel02232411163D
Structure written by MMmdl.
 43 45  0  0  0  0  0  0  0  0999 V2000
   38.2560   36.5180   17.1710 C   0  0  0  0  0  0  0  0  0  0  0  0
   34.6300   35.1510   21.2990 C   0  0  0  0  0  0  0  0  0  0  0  0
   37.4630   36.0740   18.2250 C   0  0  0  0  0  0  0  0  0  0  0  0
   34.3310   39.2640   23.8270 C   0  0  0  0  0  0  0  0  0  0  0  0
   33.8290   39.2370   26.2900 C   0  0  0  0  0  0  0  0  0  0  0  0
   34.7490   38.0270   21.4040 C   0  0  0  0  0  0  0  0  0  0  0  0
   35.0500   37.3520   20.1690 C   0  0  0  0  0  0  0  0  0  0  0  0
   37.6150   36.6810   15.9350 C   0  0  0  0  0  0  0  0  0  0  0  0
   36.2650   36.3940   15.7240 C   0  0  0  0  0  0  0  0  0  0  0  0
   35.4910   35.9380   16.7960 C   0  0  0  0  0  0  0  0  0  0  0  0
   34.5090   37.2700   22.5890 C   0  0  0  0  0  0  0  0  0  0  0  0
   34.6910   39.4400   21.5170 C   0  0  0  0  0  0  0  0  0  0  0  0
   35.0370   36.0000   20.1470 C   0  0  0  0  0  0  0  0  0  0  0  0
   36.0950   35.7720   18.0450 C   0  0  0  0  0  0  0  0  0  0  0  0
   34.1920   35.1000   23.7840 C   0  0  0  0  0  0  0  0  0  0  0  0
   37.9900   35.9310   19.4330 F   0  0  0  0  0  0  0  0  0  0  0  0
   35.3550   35.1710   19.0740 O   0  0  0  0  0  0  0  0  0  0  0  0
   34.4840   40.0680   22.6870 N   0  0  0  0  0  0  0  0  0  0  0  0
   34.4470   33.9550   21.2670 O   0  0  0  0  0  0  0  0  0  0  0  0
   34.4520   35.8710   22.5360 N   0  0  0  0  0  0  0  0  0  0  0  0
   34.3050   37.8870   23.8030 N   0  0  0  0  0  0  0  0  0  0  0  0
   34.2770   39.9300   25.0490 N   0  0  0  0  0  0  0  0  0  0  0  0
   39.3130   36.7660   17.3080 H   0  0  0  0  0  0  0  0  0  0  0  0
   34.3720   40.0450   27.5020 C   0  0  0  0  0  0  0  0  0  0  0  0
   35.2950   37.9600   19.2950 H   0  0  0  0  0  0  0  0  0  0  0  0
   35.8010   36.5380   14.7450 H   0  0  0  0  0  0  0  0  0  0  0  0
   34.4260   35.7320   16.6520 H   0  0  0  0  0  0  0  0  0  0  0  0
   34.8050   40.0720   20.6210 H   0  0  0  0  0  0  0  0  0  0  0  0
   34.8320   35.4890   24.6220 H   0  0  0  0  0  0  0  0  0  0  0  0
   33.1140   35.2010   24.0800 H   0  0  0  0  0  0  0  0  0  0  0  0
   34.4280   34.0150   23.6230 H   0  0  0  0  0  0  0  0  0  0  0  0
   34.0060   40.9400   25.0310 H   0  0  0  0  0  0  0  0  0  0  0  0
   38.3230   37.1720   14.9200 F   0  0  0  0  0  0  0  0  0  0  0  0
   32.2860   39.1370   26.3880 C   0  0  0  0  0  0  0  0  0  0  0  0
   31.7070   38.2840   25.3900 O   0  0  0  0  0  0  0  0  0  0  0  0
   32.4070   37.7030   25.0050 H   0  0  0  0  0  0  0  0  0  0  0  0
   32.0010   38.7110   27.3820 H   0  0  0  0  0  0  0  0  0  0  0  0
   31.8040   40.1290   26.2210 H   0  0  0  0  0  0  0  0  0  0  0  0
   35.8010   39.9870   27.5710 O   0  0  0  0  0  0  0  0  0  0  0  0
   34.0510   41.1130   27.4530 H   0  0  0  0  0  0  0  0  0  0  0  0
   34.0410   39.5740   28.4590 H   0  0  0  0  0  0  0  0  0  0  0  0
   36.1640   40.2710   26.6970 H   0  0  0  0  0  0  0  0  0  0  0  0
   34.2800   38.2040   26.3230 H   0  0  0  0  0  0  0  0  0  0  0  0
  1  3  2  0  0  0  0
  1  8  1  0  0  0  0
  1 23  1  0  0  0  0
  2 13  1  0  0  0  0
  2 19  2  0  0  0  0
  2 20  1  0  0  0  0
  3 14  1  0  0  0  0
  3 16  1  0  0  0  0
  4 18  2  0  0  0  0
  4 21  1  0  0  0  0
  4 22  1  0  0  0  0
  5 22  1  0  0  0  0
  5 24  1  0  0  0  0
  5 34  1  0  0  0  0
  5 43  1  0  0  0  0
  6  7  1  0  0  0  0
  6 11  1  0  0  0  0
  6 12  2  0  0  0  0
  7 13  2  0  0  0  0
  7 25  1  0  0  0  0
  8  9  2  0  0  0  0
  8 33  1  0  0  0  0
  9 10  1  0  0  0  0
  9 26  1  0  0  0  0
 10 14  2  0  0  0  0
 10 27  1  0  0  0  0
 11 20  1  0  0  0  0
 11 21  2  0  0  0  0
 12 18  1  0  0  0  0
 12 28  1  0  0  0  0
 13 17  1  0  0  0  0
 14 17  1  0  0  0  0
 15 20  1  0  0  0  0
 15 29  1  0  0  0  0
 15 30  1  0  0  0  0
 15 31  1  0  0  0  0
 22 32  1  0  0  0  0
 24 39  1  0  0  0  0
 24 40  1  0  0  0  0
 24 41  1  0  0  0  0
 34 35  1  0  0  0  0
 34 37  1  0  0  0  0
 34 38  1  0  0  0  0
 35 36  1  0  0  0  0
 39 42  1  0  0  0  0
M  END
$$$$
