p38a_2p
 OpenBabel02232411163D
Structure written by MMmdl.
 58 61  0  0  0  0  0  0  0  0999 V2000
   38.2450   36.5340   17.1340 C   0  0  0  0  0  0  0  0  0  0  0  0
   34.7720   35.1020   21.2430 C   0  0  0  0  0  0  0  0  0  0  0  0
   37.4290   36.0850   18.1690 C   0  0  0  0  0  0  0  0  0  0  0  0
   34.2090   39.1380   23.8360 C   0  0  0  0  0  0  0  0  0  0  0  0
   34.7050   37.9720   21.3900 C   0  0  0  0  0  0  0  0  0  0  0  0
   34.9690   37.3390   20.1270 C   0  0  0  0  0  0  0  0  0  0  0  0
   37.6280   36.7210   15.8900 C   0  0  0  0  0  0  0  0  0  0  0  0
   36.2770   36.4550   15.6520 C   0  0  0  0  0  0  0  0  0  0  0  0
   35.4810   35.9930   16.7050 C   0  0  0  0  0  0  0  0  0  0  0  0
   34.5950   37.1870   22.5770 C   0  0  0  0  0  0  0  0  0  0  0  0
   34.5720   39.3810   21.5310 C   0  0  0  0  0  0  0  0  0  0  0  0
   35.0250   35.9880   20.0780 C   0  0  0  0  0  0  0  0  0  0  0  0
   36.0610   35.8040   17.9620 C   0  0  0  0  0  0  0  0  0  0  0  0
   37.9370   35.9210   19.3840 F   0  0  0  0  0  0  0  0  0  0  0  0
   35.2860   35.1970   18.9580 O   0  0  0  0  0  0  0  0  0  0  0  0
   34.3360   39.9770   22.7070 N   0  0  0  0  0  0  0  0  0  0  0  0
   34.6330   33.9000   21.1930 O   0  0  0  0  0  0  0  0  0  0  0  0
   34.7170   35.7860   22.5110 N   0  0  0  0  0  0  0  0  0  0  0  0
   34.3630   37.7630   23.7980 N   0  0  0  0  0  0  0  0  0  0  0  0
   33.8500   39.7330   25.0180 N   0  0  0  0  0  0  0  0  0  0  0  0
   39.3030   36.7650   17.2930 H   0  0  0  0  0  0  0  0  0  0  0  0
   35.1260   37.9700   19.2500 H   0  0  0  0  0  0  0  0  0  0  0  0
   35.8310   36.6180   14.6690 H   0  0  0  0  0  0  0  0  0  0  0  0
   34.4160   35.7980   16.5420 H   0  0  0  0  0  0  0  0  0  0  0  0
   34.6620   40.0330   20.6450 H   0  0  0  0  0  0  0  0  0  0  0  0
   33.8440   40.7700   25.0900 H   0  0  0  0  0  0  0  0  0  0  0  0
   38.3570   37.2150   14.8930 F   0  0  0  0  0  0  0  0  0  0  0  0
   32.6010   38.9730   28.5440 C   0  0  0  0  0  0  0  0  0  0  0  0
   32.6270   39.6070   27.1480 C   0  0  0  0  0  0  0  0  0  0  0  0
   33.7730   38.9930   26.3150 C   0  0  0  0  0  0  0  0  0  0  0  0
   35.1130   39.1040   27.0740 C   0  0  0  0  0  0  0  0  0  0  0  0
   34.9690   38.4970   28.4750 C   0  0  0  0  0  0  0  0  0  0  0  0
   33.8780   39.0950   29.2110 O   0  0  0  0  0  0  0  0  0  0  0  0
   32.3240   37.8950   28.4860 H   0  0  0  0  0  0  0  0  0  0  0  0
   31.9240   39.5370   29.2270 H   0  0  0  0  0  0  0  0  0  0  0  0
   32.7780   40.7100   27.2410 H   0  0  0  0  0  0  0  0  0  0  0  0
   31.6510   39.4300   26.6350 H   0  0  0  0  0  0  0  0  0  0  0  0
   33.5490   37.9090   26.1050 H   0  0  0  0  0  0  0  0  0  0  0  0
   35.9070   38.5540   26.5150 H   0  0  0  0  0  0  0  0  0  0  0  0
   35.4150   40.1760   27.1520 H   0  0  0  0  0  0  0  0  0  0  0  0
   34.8050   37.3960   28.4120 H   0  0  0  0  0  0  0  0  0  0  0  0
   35.8490   38.7440   29.1120 H   0  0  0  0  0  0  0  0  0  0  0  0
   34.8420   34.9760   23.7650 C   0  0  0  0  0  0  0  0  0  0  0  0
   35.4920   34.0880   23.5370 H   0  0  0  0  0  0  0  0  0  0  0  0
   35.3440   35.6020   24.5550 H   0  0  0  0  0  0  0  0  0  0  0  0
   33.4800   34.4860   24.3020 C   0  0  0  0  0  0  0  0  0  0  0  0
   32.8520   35.3740   24.5690 H   0  0  0  0  0  0  0  0  0  0  0  0
   32.9620   33.8930   23.5100 H   0  0  0  0  0  0  0  0  0  0  0  0
   33.7230   33.6180   25.5430 C   0  0  0  0  0  0  0  0  0  0  0  0
   34.2930   34.2270   26.3030 H   0  0  0  0  0  0  0  0  0  0  0  0
   34.4070   32.7690   25.2670 H   0  0  0  0  0  0  0  0  0  0  0  0
   32.2590   32.9760   26.2720 S   0  0  0  0  0  0  0  0  0  0  0  0
   31.2570   34.0380   26.5180 O   0  0  0  0  0  0  0  0  0  0  0  0
   32.5820   32.2740   27.5430 O   0  0  0  0  0  0  0  0  0  0  0  0
   31.6180   31.8370   25.1220 C   0  0  0  0  0  0  0  0  0  0  0  0
   32.3970   31.1010   24.7880 H   0  0  0  0  0  0  0  0  0  0  0  0
   30.7730   31.2350   25.5440 H   0  0  0  0  0  0  0  0  0  0  0  0
   31.2290   32.3320   24.1970 H   0  0  0  0  0  0  0  0  0  0  0  0
  1  3  2  0  0  0  0
  1  7  1  0  0  0  0
  1 21  1  0  0  0  0
  2 12  1  0  0  0  0
  2 17  2  0  0  0  0
  2 18  1  0  0  0  0
  3 13  1  0  0  0  0
  3 14  1  0  0  0  0
  4 16  2  0  0  0  0
  4 19  1  0  0  0  0
  4 20  1  0  0  0  0
  5  6  1  0  0  0  0
  5 10  1  0  0  0  0
  5 11  2  0  0  0  0
  6 12  2  0  0  0  0
  6 22  1  0  0  0  0
  7  8  2  0  0  0  0
  7 27  1  0  0  0  0
  8  9  1  0  0  0  0
  8 23  1  0  0  0  0
  9 13  2  0  0  0  0
  9 24  1  0  0  0  0
 10 18  1  0  0  0  0
 10 19  2  0  0  0  0
 11 16  1  0  0  0  0
 11 25  1  0  0  0  0
 12 15  1  0  0  0  0
 13 15  1  0  0  0  0
 18 43  1  0  0  0  0
 20 26  1  0  0  0  0
 20 30  1  0  0  0  0
 28 29  1  0  0  0  0
 28 33  1  0  0  0  0
 28 34  1  0  0  0  0
 28 35  1  0  0  0  0
 29 30  1  0  0  0  0
 29 36  1  0  0  0  0
 29 37  1  0  0  0  0
 30 31  1  0  0  0  0
 30 38  1  0  0  0  0
 31 32  1  0  0  0  0
 31 39  1  0  0  0  0
 31 40  1  0  0  0  0
 32 33  1  0  0  0  0
 32 41  1  0  0  0  0
 32 42  1  0  0  0  0
 43 44  1  0  0  0  0
 43 45  1  0  0  0  0
 43 46  1  0  0  0  0
 46 47  1  0  0  0  0
 46 48  1  0  0  0  0
 46 49  1  0  0  0  0
 49 50  1  0  0  0  0
 49 51  1  0  0  0  0
 49 52  1  0  0  0  0
 52 53  2  0  0  0  0
 52 54  2  0  0  0  0
 52 55  1  0  0  0  0
 55 56  1  0  0  0  0
 55 57  1  0  0  0  0
 55 58  1  0  0  0  0
M  END
$$$$
