48
 OpenBabel02232411163D
Structure written by MMmdl.
 42 45  0  0  0  0  0  0  0  0999 V2000
    3.7310  -49.9820    5.9050 O   0  0  0  0  0  0  0  0  0  0  0  0
    3.0010  -49.1500    6.4790 C   0  0  0  0  0  0  0  0  0  0  0  0
    3.3700  -48.1530    7.1140 O   0  5  0  0  0  0  0  0  0  0  0  0
    1.4920  -49.4460    6.3830 C   0  0  0  0  0  0  0  0  0  0  0  0
   -0.3630  -50.7830    6.5140 C   0  0  0  0  0  0  0  0  0  0  0  0
   -1.2840  -51.8240    6.7280 C   0  0  0  0  0  0  0  0  0  0  0  0
   -2.6130  -51.5740    6.4170 C   0  0  0  0  0  0  0  0  0  0  0  0
   -3.0240  -50.3250    5.8960 C   0  0  0  0  0  0  0  0  0  0  0  0
   -2.1190  -49.2930    5.6850 C   0  0  0  0  0  0  0  0  0  0  0  0
   -0.7660  -49.4970    6.0020 C   0  0  0  0  0  0  0  0  0  0  0  0
    0.4220  -48.6700    5.9510 C   0  0  0  0  0  0  0  0  0  0  0  0
    0.4150  -47.2470    5.5210 C   0  0  0  0  0  0  0  0  0  0  0  0
    0.2440  -46.2670    6.6960 C   0  0  0  0  0  0  0  0  0  0  0  0
   -1.1130  -46.3670    7.3960 C   0  0  0  0  0  0  0  0  0  0  0  0
   -2.0450  -45.7740    6.4210 O   0  0  0  0  0  0  0  0  0  0  0  0
   -3.3010  -45.4210    6.7960 C   0  0  0  0  0  0  0  0  0  0  0  0
   -5.9530  -44.4400    7.2460 C   0  0  0  0  0  0  0  0  0  0  0  0
   -5.2260  -44.0690    6.1240 C   0  0  0  0  0  0  0  0  0  0  0  0
   -3.9250  -44.5460    5.8910 C   0  0  0  0  0  0  0  0  0  0  0  0
   -0.9750  -52.7890    7.1280 H   0  0  0  0  0  0  0  0  0  0  0  0
   -3.3640  -52.3500    6.5770 H   0  0  0  0  0  0  0  0  0  0  0  0
   -4.0800  -50.1790    5.6630 H   0  0  0  0  0  0  0  0  0  0  0  0
   -2.4630  -48.3400    5.2810 H   0  0  0  0  0  0  0  0  0  0  0  0
   -0.4400  -47.0900    4.8130 H   0  0  0  0  0  0  0  0  0  0  0  0
    1.3640  -46.9900    4.9900 H   0  0  0  0  0  0  0  0  0  0  0  0
    0.3520  -45.2250    6.3120 H   0  0  0  0  0  0  0  0  0  0  0  0
    1.0340  -46.4610    7.4610 H   0  0  0  0  0  0  0  0  0  0  0  0
   -1.1510  -45.7460    8.3150 H   0  0  0  0  0  0  0  0  0  0  0  0
   -1.4410  -47.4140    7.5580 H   0  0  0  0  0  0  0  0  0  0  0  0
   -3.3980  -44.2290    4.9970 H   0  0  0  0  0  0  0  0  0  0  0  0
   -5.6730  -43.3840    5.3980 H   0  0  0  0  0  0  0  0  0  0  0  0
   -6.9560  -44.0710    7.4280 H   0  0  0  0  0  0  0  0  0  0  0  0
    1.0220  -50.7270    6.7370 N   0  0  0  0  0  0  0  0  0  0  0  0
    1.5650  -51.5130    7.0750 H   0  0  0  0  0  0  0  0  0  0  0  0
   -4.9100  -46.8540    9.7950 C   0  0  0  0  0  0  0  0  0  0  0  0
   -5.8590  -45.9220    9.2990 N   0  0  0  0  0  0  0  0  0  0  0  0
   -5.3370  -45.3430    8.1340 C   0  0  0  0  0  0  0  0  0  0  0  0
   -4.0080  -45.8640    7.9420 C   0  0  0  0  0  0  0  0  0  0  0  0
   -3.7790  -46.8100    9.0060 C   0  0  0  0  0  0  0  0  0  0  0  0
   -6.8000  -45.8240    9.6380 H   0  0  0  0  0  0  0  0  0  0  0  0
   -2.8990  -47.4050    9.1540 H   0  0  0  0  0  0  0  0  0  0  0  0
   -5.1380  -47.4690   10.6490 H   0  0  0  0  0  0  0  0  0  0  0  0
  1  2  2  0  0  0  0
  2  3  1  0  0  0  0
  2  4  1  0  0  0  0
  4 11  2  0  0  0  0
  4 33  1  0  0  0  0
  5  6  2  0  0  0  0
  5 10  1  0  0  0  0
  5 33  1  0  0  0  0
  6  7  1  0  0  0  0
  6 20  1  0  0  0  0
  7  8  2  0  0  0  0
  7 21  1  0  0  0  0
  8  9  1  0  0  0  0
  8 22  1  0  0  0  0
  9 10  2  0  0  0  0
  9 23  1  0  0  0  0
 10 11  1  0  0  0  0
 11 12  1  0  0  0  0
 12 24  1  0  0  0  0
 12 25  1  0  0  0  0
 12 13  1  0  0  0  0
 13 14  1  0  0  0  0
 13 26  1  0  0  0  0
 13 27  1  0  0  0  0
 14 15  1  0  0  0  0
 14 28  1  0  0  0  0
 14 29  1  0  0  0  0
 15 16  1  0  0  0  0
 16 19  2  0  0  0  0
 16 38  1  0  0  0  0
 17 18  2  0  0  0  0
 17 32  1  0  0  0  0
 17 37  1  0  0  0  0
 18 19  1  0  0  0  0
 18 31  1  0  0  0  0
 19 30  1  0  0  0  0
 33 34  1  0  0  0  0
 35 36  1  0  0  0  0
 35 39  2  0  0  0  0
 35 42  1  0  0  0  0
 36 37  1  0  0  0  0
 36 40  1  0  0  0  0
 37 38  2  0  0  0  0
 38 39  1  0  0  0  0
 39 41  1  0  0  0  0
M  CHG  1   3  -1
M  END
$$$$
