18638-1
 OpenBabel02232411163D
Structure written by MMmdl.
 52 53  0  0  0  0  0  0  0  0999 V2000
   23.2720   10.6160   29.0160 C   0  0  0  0  0  0  0  0  0  0  0  0
   23.5750   10.8980   30.4730 C   0  0  0  0  0  0  0  0  0  0  0  0
   22.3250   11.0200   31.2520 O   0  0  0  0  0  0  0  0  0  0  0  0
   21.6590    9.9000   31.6120 C   0  0  0  0  0  0  0  0  0  0  0  0
   22.1250    8.6910   31.2190 N   0  0  0  0  0  0  0  0  0  0  0  0
   21.3720    7.5780   31.5520 C   0  0  0  0  0  0  0  0  0  0  0  0
   20.2020    7.6570   32.3010 C   0  0  0  0  0  0  0  0  0  0  0  0
   19.7290    8.9280   32.7270 C   0  0  0  0  0  0  0  0  0  0  0  0
   18.5610    9.0090   33.4430 N   0  0  0  0  0  0  0  0  0  0  0  0
   20.4710   10.1020   32.3780 C   0  0  0  0  0  0  0  0  0  0  0  0
   20.0810   11.4140   32.7190 C   0  0  0  0  0  0  0  0  0  0  0  0
   19.8080   12.5140   32.9650 N   0  0  0  0  0  0  0  0  0  0  0  0
   21.9200    6.3850   31.0190 N   0  0  0  0  0  0  0  0  0  0  0  0
   21.2370    5.1550   30.9190 C   0  0  0  0  0  0  0  0  0  0  0  0
   20.1570    4.9610   31.4350 O   0  0  0  0  0  0  0  0  0  0  0  0
   21.9230    4.1310   30.0300 C   0  0  0  0  0  0  0  0  0  0  0  0
   23.3020    3.7130   30.4460 C   0  0  0  0  0  0  0  0  0  0  0  0
   24.4430    4.4130   29.9520 C   0  0  0  0  0  0  0  0  0  0  0  0
   24.1100    5.5460   29.2140 O   0  0  0  0  0  0  0  0  0  0  0  0
   25.1400    6.5640   29.0820 C   0  0  0  0  0  0  0  0  0  0  0  0
   25.7310    3.9310   30.1500 C   0  0  0  0  0  0  0  0  0  0  0  0
   25.9450    2.7690   30.9160 C   0  0  0  0  0  0  0  0  0  0  0  0
   27.5840    2.1590   31.0200 S   0  0  0  0  0  0  0  0  0  0  0  0
   28.5270    3.2630   31.3240 O   0  0  0  0  0  0  0  0  0  0  0  0
   27.6360    1.1180   32.0750 O   0  0  0  0  0  0  0  0  0  0  0  0
   27.8900    1.4800   29.4520 C   0  0  0  0  0  0  0  0  0  0  0  0
   24.8340    2.1390   31.4960 C   0  0  0  0  0  0  0  0  0  0  0  0
   23.5130    2.5940   31.2330 C   0  0  0  0  0  0  0  0  0  0  0  0
   25.1240    1.0900   32.3270 O   0  0  0  0  0  0  0  0  0  0  0  0
   24.0200    0.2490   32.7750 C   0  0  0  0  0  0  0  0  0  0  0  0
   22.8510    9.5920   28.8810 H   0  0  0  0  0  0  0  0  0  0  0  0
   22.5520   11.3560   28.6000 H   0  0  0  0  0  0  0  0  0  0  0  0
   24.2190   10.6840   28.4250 H   0  0  0  0  0  0  0  0  0  0  0  0
   23.9810   11.9260   30.6280 H   0  0  0  0  0  0  0  0  0  0  0  0
   24.2220   10.1140   30.9280 H   0  0  0  0  0  0  0  0  0  0  0  0
   19.6290    6.7620   32.5510 H   0  0  0  0  0  0  0  0  0  0  0  0
   18.0460    8.1530   33.7240 H   0  0  0  0  0  0  0  0  0  0  0  0
   18.1740    9.9080   33.7300 H   0  0  0  0  0  0  0  0  0  0  0  0
   22.8350    6.4830   30.5190 H   0  0  0  0  0  0  0  0  0  0  0  0
   21.2720    3.2180   29.9770 H   0  0  0  0  0  0  0  0  0  0  0  0
   21.9830    4.5840   28.9980 H   0  0  0  0  0  0  0  0  0  0  0  0
   24.5470    7.4440   28.7430 H   0  0  0  0  0  0  0  0  0  0  0  0
   25.6260    6.7600   30.0620 H   0  0  0  0  0  0  0  0  0  0  0  0
   25.8720    6.2380   28.3110 H   0  0  0  0  0  0  0  0  0  0  0  0
   26.5770    4.4520   29.6880 H   0  0  0  0  0  0  0  0  0  0  0  0
   27.8600    2.2550   28.6410 H   0  0  0  0  0  0  0  0  0  0  0  0
   28.8950    0.9880   29.3820 H   0  0  0  0  0  0  0  0  0  0  0  0
   27.1320    0.7040   29.1690 H   0  0  0  0  0  0  0  0  0  0  0  0
   22.6570    2.0480   31.6310 H   0  0  0  0  0  0  0  0  0  0  0  0
   23.4940   -0.1850   31.8980 H   0  0  0  0  0  0  0  0  0  0  0  0
   23.3400    0.8220   33.4410 H   0  0  0  0  0  0  0  0  0  0  0  0
   24.5590   -0.5460   33.3460 H   0  0  0  0  0  0  0  0  0  0  0  0
  1  2  1  0  0  0  0
  1 31  1  0  0  0  0
  1 32  1  0  0  0  0
  1 33  1  0  0  0  0
  2  3  1  0  0  0  0
  2 34  1  0  0  0  0
  2 35  1  0  0  0  0
  3  4  1  0  0  0  0
  4 10  2  0  0  0  0
  4  5  1  0  0  0  0
  5  6  2  0  0  0  0
  6  7  1  0  0  0  0
  6 13  1  0  0  0  0
  7  8  2  0  0  0  0
  7 36  1  0  0  0  0
  8  9  1  0  0  0  0
  8 10  1  0  0  0  0
  9 37  1  0  0  0  0
  9 38  1  0  0  0  0
 10 11  1  0  0  0  0
 11 12  3  0  0  0  0
 13 14  1  0  0  0  0
 13 39  1  0  0  0  0
 14 15  2  0  0  0  0
 14 16  1  0  0  0  0
 16 17  1  0  0  0  0
 16 40  1  0  0  0  0
 16 41  1  0  0  0  0
 17 28  2  0  0  0  0
 17 18  1  0  0  0  0
 18 19  1  0  0  0  0
 18 21  2  0  0  0  0
 19 20  1  0  0  0  0
 20 42  1  0  0  0  0
 20 43  1  0  0  0  0
 20 44  1  0  0  0  0
 21 22  1  0  0  0  0
 21 45  1  0  0  0  0
 22 23  1  0  0  0  0
 22 27  2  0  0  0  0
 23 24  2  0  0  0  0
 23 25  2  0  0  0  0
 23 26  1  0  0  0  0
 26 46  1  0  0  0  0
 26 47  1  0  0  0  0
 26 48  1  0  0  0  0
 27 28  1  0  0  0  0
 27 29  1  0  0  0  0
 28 49  1  0  0  0  0
 29 30  1  0  0  0  0
 30 50  1  0  0  0  0
 30 51  1  0  0  0  0
 30 52  1  0  0  0  0
M  END
$$$$
