p38a_2bb
 OpenBabel02232411163D
Structure written by MMmdl.
 44 46  0  0  0  0  0  0  0  0999 V2000
   38.2200   36.4940   17.2370 C   0  0  0  0  0  0  0  0  0  0  0  0
   34.6230   35.1850   21.4130 C   0  0  0  0  0  0  0  0  0  0  0  0
   37.4300   36.0780   18.3050 C   0  0  0  0  0  0  0  0  0  0  0  0
   34.3210   39.2840   23.9600 C   0  0  0  0  0  0  0  0  0  0  0  0
   33.9420   39.2100   26.4480 C   0  0  0  0  0  0  0  0  0  0  0  0
   34.7220   38.0570   21.5230 C   0  0  0  0  0  0  0  0  0  0  0  0
   35.0230   37.3900   20.2850 C   0  0  0  0  0  0  0  0  0  0  0  0
   37.5740   36.6400   16.0020 C   0  0  0  0  0  0  0  0  0  0  0  0
   36.2190   36.3630   15.8060 C   0  0  0  0  0  0  0  0  0  0  0  0
   35.4470   35.9400   16.8940 C   0  0  0  0  0  0  0  0  0  0  0  0
   34.4960   37.2980   22.7110 C   0  0  0  0  0  0  0  0  0  0  0  0
   34.6470   39.4690   21.6420 C   0  0  0  0  0  0  0  0  0  0  0  0
   35.0160   36.0380   20.2590 C   0  0  0  0  0  0  0  0  0  0  0  0
   36.0570   35.7910   18.1430 C   0  0  0  0  0  0  0  0  0  0  0  0
   34.2070   35.1270   23.9040 C   0  0  0  0  0  0  0  0  0  0  0  0
   37.9680   35.9430   19.5100 F   0  0  0  0  0  0  0  0  0  0  0  0
   35.3170   35.2080   19.1800 O   0  0  0  0  0  0  0  0  0  0  0  0
   34.4450   40.0910   22.8140 N   0  0  0  0  0  0  0  0  0  0  0  0
   34.4410   33.9880   21.3770 O   0  0  0  0  0  0  0  0  0  0  0  0
   34.4540   35.8980   22.6530 N   0  0  0  0  0  0  0  0  0  0  0  0
   34.2970   37.9040   23.9290 N   0  0  0  0  0  0  0  0  0  0  0  0
   34.2740   39.9320   25.1780 N   0  0  0  0  0  0  0  0  0  0  0  0
   39.2810   36.7320   17.3620 H   0  0  0  0  0  0  0  0  0  0  0  0
   34.4810   38.2230   26.4510 H   0  0  0  0  0  0  0  0  0  0  0  0
   35.2600   38.0020   19.4120 H   0  0  0  0  0  0  0  0  0  0  0  0
   35.7520   36.4870   14.8260 H   0  0  0  0  0  0  0  0  0  0  0  0
   34.3780   35.7440   16.7600 H   0  0  0  0  0  0  0  0  0  0  0  0
   34.7430   40.1060   20.7470 H   0  0  0  0  0  0  0  0  0  0  0  0
   34.9510   35.4270   24.6920 H   0  0  0  0  0  0  0  0  0  0  0  0
   33.1740   35.3440   24.2900 H   0  0  0  0  0  0  0  0  0  0  0  0
   34.3030   34.0270   23.7080 H   0  0  0  0  0  0  0  0  0  0  0  0
   34.0730   40.9520   25.1980 H   0  0  0  0  0  0  0  0  0  0  0  0
   38.2820   37.1020   14.9740 F   0  0  0  0  0  0  0  0  0  0  0  0
   34.3980   40.0770   27.6260 C   0  0  0  0  0  0  0  0  0  0  0  0
   32.8300   39.0450   26.4920 H   0  0  0  0  0  0  0  0  0  0  0  0
   35.5000   40.2880   27.5250 H   0  0  0  0  0  0  0  0  0  0  0  0
   33.9040   41.0900   27.5530 H   0  0  0  0  0  0  0  0  0  0  0  0
   34.2430   40.7730   30.2770 C   0  0  0  0  0  0  0  0  0  0  0  0
   34.0720   39.4000   29.2250 S   0  0  0  0  0  0  0  0  0  0  0  0
   32.6990   38.8480   29.3120 O   0  0  0  0  0  0  0  0  0  0  0  0
   35.0700   38.3620   29.5790 O   0  0  0  0  0  0  0  0  0  0  0  0
   35.2300   41.2870   30.1330 H   0  0  0  0  0  0  0  0  0  0  0  0
   33.4610   41.5550   30.0860 H   0  0  0  0  0  0  0  0  0  0  0  0
   34.1710   40.5040   31.3600 H   0  0  0  0  0  0  0  0  0  0  0  0
  1  3  2  0  0  0  0
  1  8  1  0  0  0  0
  1 23  1  0  0  0  0
  2 13  1  0  0  0  0
  2 19  2  0  0  0  0
  2 20  1  0  0  0  0
  3 14  1  0  0  0  0
  3 16  1  0  0  0  0
  4 18  2  0  0  0  0
  4 21  1  0  0  0  0
  4 22  1  0  0  0  0
  5 22  1  0  0  0  0
  5 24  1  0  0  0  0
  5 34  1  0  0  0  0
  5 35  1  0  0  0  0
  6  7  1  0  0  0  0
  6 11  1  0  0  0  0
  6 12  2  0  0  0  0
  7 13  2  0  0  0  0
  7 25  1  0  0  0  0
  8  9  2  0  0  0  0
  8 33  1  0  0  0  0
  9 10  1  0  0  0  0
  9 26  1  0  0  0  0
 10 14  2  0  0  0  0
 10 27  1  0  0  0  0
 11 20  1  0  0  0  0
 11 21  2  0  0  0  0
 12 18  1  0  0  0  0
 12 28  1  0  0  0  0
 13 17  1  0  0  0  0
 14 17  1  0  0  0  0
 15 20  1  0  0  0  0
 15 29  1  0  0  0  0
 15 30  1  0  0  0  0
 15 31  1  0  0  0  0
 22 32  1  0  0  0  0
 34 36  1  0  0  0  0
 34 37  1  0  0  0  0
 34 39  1  0  0  0  0
 38 39  1  0  0  0  0
 38 42  1  0  0  0  0
 38 43  1  0  0  0  0
 38 44  1  0  0  0  0
 39 40  2  0  0  0  0
 39 41  2  0  0  0  0
M  END
$$$$
