ejm_54
 OpenBabel02232411173D
Structure written by MMmdl.
 37 38  0  0  0  0  0  0  0  0999 V2000
   -1.5450   21.4990  -27.5420 C   0  0  0  0  0  0  0  0  0  0  0  0
   -1.0550   22.5640  -28.3010 C   0  0  0  0  0  0  0  0  0  0  0  0
   -1.8460   23.0980  -29.3210 C   0  0  0  0  0  0  0  0  0  0  0  0
   -3.1180   22.5910  -29.6120 C   0  0  0  0  0  0  0  0  0  0  0  0
   -3.5930   21.5360  -28.8180 C   0  0  0  0  0  0  0  0  0  0  0  0
   -2.8210   20.9860  -27.7940 C   0  0  0  0  0  0  0  0  0  0  0  0
   -5.1570   20.9040  -29.1200 Cl  0  0  0  0  0  0  0  0  0  0  0  0
   -3.9690   23.0660  -30.7550 C   0  0  0  0  0  0  0  0  0  0  0  0
   -4.3720   22.3150  -31.6170 O   0  0  0  0  0  0  0  0  0  0  0  0
   -4.2770   24.4400  -30.7010 N   0  0  0  0  0  0  0  0  0  0  0  0
   -5.1360   25.1490  -31.5880 C   0  0  0  0  0  0  0  0  0  0  0  0
   -5.8130   24.5490  -32.6610 C   0  0  0  0  0  0  0  0  0  0  0  0
   -6.6900   25.3400  -33.4170 C   0  0  0  0  0  0  0  0  0  0  0  0
   -6.9090   26.6560  -33.1760 N   0  0  0  0  0  0  0  0  0  0  0  0
   -6.2130   27.2380  -32.1340 C   0  0  0  0  0  0  0  0  0  0  0  0
   -5.3180   26.5220  -31.3260 C   0  0  0  0  0  0  0  0  0  0  0  0
   -6.4880   28.6200  -31.9640 N   0  0  0  0  0  0  0  0  0  0  0  0
   -5.8120   29.4890  -31.0480 C   0  0  0  0  0  0  0  0  0  0  0  0
   -4.9270   29.0970  -30.3040 O   0  0  0  0  0  0  0  0  0  0  0  0
   -1.2130   24.4200  -30.2110 Cl  0  0  0  0  0  0  0  0  0  0  0  0
   -0.9280   21.0690  -26.7450 H   0  0  0  0  0  0  0  0  0  0  0  0
   -0.0630   22.9710  -28.0820 H   0  0  0  0  0  0  0  0  0  0  0  0
   -3.1960   20.1660  -27.1800 H   0  0  0  0  0  0  0  0  0  0  0  0
   -3.8690   24.9950  -29.9270 H   0  0  0  0  0  0  0  0  0  0  0  0
   -5.6920   23.4910  -32.9050 H   0  0  0  0  0  0  0  0  0  0  0  0
   -7.2570   24.9040  -34.2560 H   0  0  0  0  0  0  0  0  0  0  0  0
   -4.7770   27.0180  -30.5130 H   0  0  0  0  0  0  0  0  0  0  0  0
   -7.3870   28.9630  -32.3770 H   0  0  0  0  0  0  0  0  0  0  0  0
   -5.5220   31.8900  -30.4020 C   0  0  0  0  0  0  0  0  0  0  0  0
   -6.1870   32.7990  -30.3980 H   0  0  0  0  0  0  0  0  0  0  0  0
   -5.2940   31.6030  -29.3420 H   0  0  0  0  0  0  0  0  0  0  0  0
   -4.2250   32.1980  -31.1540 C   0  0  0  0  0  0  0  0  0  0  0  0
   -6.3280   30.8030  -31.0270 N   0  0  0  0  0  0  0  0  0  0  0  0
   -6.8920   31.1310  -31.8240 H   0  0  0  0  0  0  0  0  0  0  0  0
   -3.5020   31.3570  -31.0630 H   0  0  0  0  0  0  0  0  0  0  0  0
   -4.4380   32.3860  -32.2270 H   0  0  0  0  0  0  0  0  0  0  0  0
   -3.7600   33.1110  -30.7120 H   0  0  0  0  0  0  0  0  0  0  0  0
  1  2  2  0  0  0  0
  1  6  1  0  0  0  0
  1 21  1  0  0  0  0
  2  3  1  0  0  0  0
  2 22  1  0  0  0  0
  3  4  2  0  0  0  0
  3 20  1  0  0  0  0
  4  5  1  0  0  0  0
  4  8  1  0  0  0  0
  5  6  2  0  0  0  0
  5  7  1  0  0  0  0
  6 23  1  0  0  0  0
  8  9  2  0  0  0  0
  8 10  1  0  0  0  0
 10 11  1  0  0  0  0
 10 24  1  0  0  0  0
 11 12  2  0  0  0  0
 11 16  1  0  0  0  0
 12 13  1  0  0  0  0
 12 25  1  0  0  0  0
 13 14  2  0  0  0  0
 13 26  1  0  0  0  0
 14 15  1  0  0  0  0
 15 16  2  0  0  0  0
 15 17  1  0  0  0  0
 16 27  1  0  0  0  0
 17 18  1  0  0  0  0
 17 28  1  0  0  0  0
 18 19  2  0  0  0  0
 18 33  1  0  0  0  0
 29 30  1  0  0  0  0
 29 31  1  0  0  0  0
 29 32  1  0  0  0  0
 29 33  1  0  0  0  0
 32 35  1  0  0  0  0
 32 36  1  0  0  0  0
 32 37  1  0  0  0  0
 33 34  1  0  0  0  0
M  END
$$$$
