18637-1
 OpenBabel02232411163D
Structure written by MMmdl.
 53 54  0  0  0  0  0  0  0  0999 V2000
   23.2100   10.8310   29.0770 C   0  0  0  0  0  0  0  0  0  0  0  0
   23.4740   11.0570   30.5510 C   0  0  0  0  0  0  0  0  0  0  0  0
   22.2050   11.1590   31.3010 O   0  0  0  0  0  0  0  0  0  0  0  0
   21.5420   10.0280   31.6330 C   0  0  0  0  0  0  0  0  0  0  0  0
   21.9990    8.8350   31.1930 N   0  0  0  0  0  0  0  0  0  0  0  0
   21.2460    7.7080   31.4910 C   0  0  0  0  0  0  0  0  0  0  0  0
   20.0890    7.7600   32.2620 C   0  0  0  0  0  0  0  0  0  0  0  0
   19.6320    9.0150   32.7450 C   0  0  0  0  0  0  0  0  0  0  0  0
   18.4880    9.0700   33.5000 N   0  0  0  0  0  0  0  0  0  0  0  0
   20.3620   10.2030   32.4160 C   0  0  0  0  0  0  0  0  0  0  0  0
   19.9690   11.5060   32.7850 C   0  0  0  0  0  0  0  0  0  0  0  0
   19.6950   12.6030   33.0450 N   0  0  0  0  0  0  0  0  0  0  0  0
   21.7980    6.5530   30.9000 N   0  0  0  0  0  0  0  0  0  0  0  0
   21.1990    5.2750   30.8000 C   0  0  0  0  0  0  0  0  0  0  0  0
   20.1180    5.0210   31.2870 O   0  0  0  0  0  0  0  0  0  0  0  0
   22.0160    4.3000   29.9610 C   0  0  0  0  0  0  0  0  0  0  0  0
   23.3470    3.9820   30.5730 C   0  0  0  0  0  0  0  0  0  0  0  0
   24.4670    4.8190   30.3700 C   0  0  0  0  0  0  0  0  0  0  0  0
   24.2040    5.8940   29.5340 O   0  0  0  0  0  0  0  0  0  0  0  0
   25.1810    6.9670   29.4530 C   0  0  0  0  0  0  0  0  0  0  0  0
   25.7130    4.5580   30.9540 C   0  0  0  0  0  0  0  0  0  0  0  0
   25.8730    3.4190   31.7470 C   0  0  0  0  0  0  0  0  0  0  0  0
   24.7500    2.5550   31.9390 C   0  0  0  0  0  0  0  0  0  0  0  0
   23.5150    2.8340   31.3610 C   0  0  0  0  0  0  0  0  0  0  0  0
   25.0280    1.4800   32.7670 O   0  0  0  0  0  0  0  0  0  0  0  0
   24.0980    0.3670   32.7580 C   0  0  0  0  0  0  0  0  0  0  0  0
   27.1020    3.1090   32.4000 N   0  0  0  0  0  0  0  0  0  0  0  0
   28.3920    3.3610   31.8690 C   0  0  0  0  0  0  0  0  0  0  0  0
   28.5280    3.8800   30.7740 O   0  0  0  0  0  0  0  0  0  0  0  0
   29.5130    2.9510   32.7720 C   0  0  0  0  0  0  0  0  0  0  0  0
   22.7820    9.8170   28.8940 H   0  0  0  0  0  0  0  0  0  0  0  0
   22.5090   11.5930   28.6690 H   0  0  0  0  0  0  0  0  0  0  0  0
   24.1730   10.9100   28.5150 H   0  0  0  0  0  0  0  0  0  0  0  0
   23.8840   12.0770   30.7530 H   0  0  0  0  0  0  0  0  0  0  0  0
   24.1060   10.2550   30.9950 H   0  0  0  0  0  0  0  0  0  0  0  0
   19.5180    6.8570   32.4860 H   0  0  0  0  0  0  0  0  0  0  0  0
   18.1040    9.9590   33.8210 H   0  0  0  0  0  0  0  0  0  0  0  0
   17.9870    8.2040   33.7750 H   0  0  0  0  0  0  0  0  0  0  0  0
   22.7200    6.7030   30.4190 H   0  0  0  0  0  0  0  0  0  0  0  0
   21.4220    3.3590   29.8330 H   0  0  0  0  0  0  0  0  0  0  0  0
   22.1750    4.7620   28.9490 H   0  0  0  0  0  0  0  0  0  0  0  0
   25.4040    7.3670   30.4660 H   0  0  0  0  0  0  0  0  0  0  0  0
   26.0900    6.6050   28.9290 H   0  0  0  0  0  0  0  0  0  0  0  0
   24.6280    7.7160   28.8400 H   0  0  0  0  0  0  0  0  0  0  0  0
   26.5560    5.2370   30.7940 H   0  0  0  0  0  0  0  0  0  0  0  0
   22.6710    2.1580   31.5160 H   0  0  0  0  0  0  0  0  0  0  0  0
   24.6430   -0.3810   33.3820 H   0  0  0  0  0  0  0  0  0  0  0  0
   23.1420    0.6680   33.2390 H   0  0  0  0  0  0  0  0  0  0  0  0
   23.9530   -0.0050   31.7210 H   0  0  0  0  0  0  0  0  0  0  0  0
   27.0310    2.5120   33.2410 H   0  0  0  0  0  0  0  0  0  0  0  0
   29.4010    1.9010   33.1450 H   0  0  0  0  0  0  0  0  0  0  0  0
   30.4970    3.0140   32.2410 H   0  0  0  0  0  0  0  0  0  0  0  0
   29.5690    3.6240   33.6680 H   0  0  0  0  0  0  0  0  0  0  0  0
  1  2  1  0  0  0  0
  1 31  1  0  0  0  0
  1 32  1  0  0  0  0
  1 33  1  0  0  0  0
  2  3  1  0  0  0  0
  2 34  1  0  0  0  0
  2 35  1  0  0  0  0
  3  4  1  0  0  0  0
  4 10  2  0  0  0  0
  4  5  1  0  0  0  0
  5  6  2  0  0  0  0
  6  7  1  0  0  0  0
  6 13  1  0  0  0  0
  7  8  2  0  0  0  0
  7 36  1  0  0  0  0
  8  9  1  0  0  0  0
  8 10  1  0  0  0  0
  9 37  1  0  0  0  0
  9 38  1  0  0  0  0
 10 11  1  0  0  0  0
 11 12  3  0  0  0  0
 13 14  1  0  0  0  0
 13 39  1  0  0  0  0
 14 15  2  0  0  0  0
 14 16  1  0  0  0  0
 16 17  1  0  0  0  0
 16 40  1  0  0  0  0
 16 41  1  0  0  0  0
 17 24  2  0  0  0  0
 17 18  1  0  0  0  0
 18 19  1  0  0  0  0
 18 21  2  0  0  0  0
 19 20  1  0  0  0  0
 20 42  1  0  0  0  0
 20 43  1  0  0  0  0
 20 44  1  0  0  0  0
 21 22  1  0  0  0  0
 21 45  1  0  0  0  0
 22 23  2  0  0  0  0
 22 27  1  0  0  0  0
 23 24  1  0  0  0  0
 23 25  1  0  0  0  0
 24 46  1  0  0  0  0
 25 26  1  0  0  0  0
 26 47  1  0  0  0  0
 26 48  1  0  0  0  0
 26 49  1  0  0  0  0
 27 28  1  0  0  0  0
 27 50  1  0  0  0  0
 28 29  2  0  0  0  0
 28 30  1  0  0  0  0
 30 51  1  0  0  0  0
 30 52  1  0  0  0  0
 30 53  1  0  0  0  0
M  END
$$$$
