18624-1
 OpenBabel02232411163D
Structure written by MMmdl.
 38 39  0  0  0  0  0  0  0  0999 V2000
   23.8080   12.6910   30.3520 C   0  0  0  0  0  0  0  0  0  0  0  0
   23.3810   11.2380   30.4360 C   0  0  0  0  0  0  0  0  0  0  0  0
   22.1390   11.3030   31.2500 O   0  0  0  0  0  0  0  0  0  0  0  0
   21.5210   10.1510   31.5820 C   0  0  0  0  0  0  0  0  0  0  0  0
   22.0110    8.9720   31.1320 N   0  0  0  0  0  0  0  0  0  0  0  0
   21.2990    7.8220   31.4450 C   0  0  0  0  0  0  0  0  0  0  0  0
   20.1470    7.8390   32.2250 C   0  0  0  0  0  0  0  0  0  0  0  0
   19.6450    9.0810   32.7000 C   0  0  0  0  0  0  0  0  0  0  0  0
   18.4990    9.1110   33.4530 N   0  0  0  0  0  0  0  0  0  0  0  0
   20.3370   10.2890   32.3670 C   0  0  0  0  0  0  0  0  0  0  0  0
   19.9030   11.5820   32.7280 C   0  0  0  0  0  0  0  0  0  0  0  0
   19.5940   12.6710   32.9820 N   0  0  0  0  0  0  0  0  0  0  0  0
   21.8800    6.6720   30.8580 N   0  0  0  0  0  0  0  0  0  0  0  0
   21.3530    5.3550   30.8430 C   0  0  0  0  0  0  0  0  0  0  0  0
   20.3260    5.0580   31.4150 O   0  0  0  0  0  0  0  0  0  0  0  0
   22.1730    4.3900   30.0010 C   0  0  0  0  0  0  0  0  0  0  0  0
   23.4380    3.9650   30.7000 C   0  0  0  0  0  0  0  0  0  0  0  0
   24.6220    4.6980   30.5260 C   0  0  0  0  0  0  0  0  0  0  0  0
   25.7900    4.3130   31.1900 C   0  0  0  0  0  0  0  0  0  0  0  0
   25.7870    3.1920   32.0260 C   0  0  0  0  0  0  0  0  0  0  0  0
   24.6150    2.4480   32.1840 C   0  0  0  0  0  0  0  0  0  0  0  0
   23.4440    2.8260   31.5190 C   0  0  0  0  0  0  0  0  0  0  0  0
   24.0540   13.1030   31.3560 H   0  0  0  0  0  0  0  0  0  0  0  0
   23.0070   13.3170   29.8920 H   0  0  0  0  0  0  0  0  0  0  0  0
   24.7170   12.7600   29.7030 H   0  0  0  0  0  0  0  0  0  0  0  0
   23.1090   10.8140   29.4440 H   0  0  0  0  0  0  0  0  0  0  0  0
   24.1190   10.6050   30.9770 H   0  0  0  0  0  0  0  0  0  0  0  0
   19.6110    6.9180   32.4620 H   0  0  0  0  0  0  0  0  0  0  0  0
   18.0040    8.2360   33.7140 H   0  0  0  0  0  0  0  0  0  0  0  0
   18.0910    9.9920   33.7650 H   0  0  0  0  0  0  0  0  0  0  0  0
   22.7720    6.8460   30.3510 H   0  0  0  0  0  0  0  0  0  0  0  0
   21.5420    3.4890   29.7810 H   0  0  0  0  0  0  0  0  0  0  0  0
   22.4270    4.8740   29.0200 H   0  0  0  0  0  0  0  0  0  0  0  0
   24.6540    5.5680   29.8660 H   0  0  0  0  0  0  0  0  0  0  0  0
   26.7090    4.8890   31.0500 H   0  0  0  0  0  0  0  0  0  0  0  0
   26.7020    2.8960   32.5480 H   0  0  0  0  0  0  0  0  0  0  0  0
   24.6140    1.5630   32.8280 H   0  0  0  0  0  0  0  0  0  0  0  0
   22.5440    2.2210   31.6410 H   0  0  0  0  0  0  0  0  0  0  0  0
  1  2  1  0  0  0  0
  1 23  1  0  0  0  0
  1 24  1  0  0  0  0
  1 25  1  0  0  0  0
  2  3  1  0  0  0  0
  2 26  1  0  0  0  0
  2 27  1  0  0  0  0
  3  4  1  0  0  0  0
  4 10  2  0  0  0  0
  4  5  1  0  0  0  0
  5  6  2  0  0  0  0
  6  7  1  0  0  0  0
  6 13  1  0  0  0  0
  7  8  2  0  0  0  0
  7 28  1  0  0  0  0
  8  9  1  0  0  0  0
  8 10  1  0  0  0  0
  9 29  1  0  0  0  0
  9 30  1  0  0  0  0
 10 11  1  0  0  0  0
 11 12  3  0  0  0  0
 13 14  1  0  0  0  0
 13 31  1  0  0  0  0
 14 15  2  0  0  0  0
 14 16  1  0  0  0  0
 16 17  1  0  0  0  0
 16 32  1  0  0  0  0
 16 33  1  0  0  0  0
 17 22  2  0  0  0  0
 17 18  1  0  0  0  0
 18 19  2  0  0  0  0
 18 34  1  0  0  0  0
 19 20  1  0  0  0  0
 19 35  1  0  0  0  0
 20 21  2  0  0  0  0
 20 36  1  0  0  0  0
 21 22  1  0  0  0  0
 21 37  1  0  0  0  0
 22 38  1  0  0  0  0
M  END
$$$$
