1h1s
 OpenBabel02232411153D
Structure written by MMmdl.
 50 53  0  0  0  0  0  0  0  0999 V2000
    2.2440   28.7320    6.6740 C   0  0  0  0  0  0  0  0  0  0  0  0
   -1.2910   31.2650    7.8180 C   0  0  0  0  0  0  0  0  0  0  0  0
    0.4250   25.9350    9.0530 C   0  0  0  0  0  0  0  0  0  0  0  0
   -0.5410   25.2250   10.0100 C   0  0  0  0  0  0  0  0  0  0  0  0
   -0.4980   23.7070    9.7290 C   0  0  0  0  0  0  0  0  0  0  0  0
   -1.3890   22.9380   10.7140 C   0  0  0  0  0  0  0  0  0  0  0  0
   -1.0220   23.2450   12.1760 C   0  0  0  0  0  0  0  0  0  0  0  0
   -1.0690   24.7550   12.4560 C   0  0  0  0  0  0  0  0  0  0  0  0
   -0.1780   25.5320   11.4750 C   0  0  0  0  0  0  0  0  0  0  0  0
    5.8340   25.8390    4.8630 C   0  0  0  0  0  0  0  0  0  0  0  0
    5.6730   24.7820    5.7720 C   0  0  0  0  0  0  0  0  0  0  0  0
    4.8020   24.9580    6.8580 C   0  0  0  0  0  0  0  0  0  0  0  0
    4.0610   26.1340    7.0160 C   0  0  0  0  0  0  0  0  0  0  0  0
    1.5920   27.7880    7.4550 N   0  0  0  0  0  0  0  0  0  0  0  0
    0.3800   28.0990    7.9930 C   0  0  0  0  0  0  0  0  0  0  0  0
   -0.2700   27.2160    8.7610 O   0  0  0  0  0  0  0  0  0  0  0  0
   -0.2000   29.3760    7.7680 C   0  0  0  0  0  0  0  0  0  0  0  0
   -1.3680   29.9960    8.2300 N   0  0  0  0  0  0  0  0  0  0  0  0
   -0.0820   31.5280    7.0820 N   0  0  0  0  0  0  0  0  0  0  0  0
    0.6070   30.3220    7.0150 C   0  0  0  0  0  0  0  0  0  0  0  0
    1.8090   30.0230    6.4230 N   0  0  0  0  0  0  0  0  0  0  0  0
    3.4480   28.3810    6.0560 N   0  0  0  0  0  0  0  0  0  0  0  0
    4.1690   27.1580    6.0600 C   0  0  0  0  0  0  0  0  0  0  0  0
    5.1030   27.0090    5.0040 C   0  0  0  0  0  0  0  0  0  0  0  0
   -2.0150   32.0560    7.9970 H   0  0  0  0  0  0  0  0  0  0  0  0
    1.4040   26.1730    9.5220 H   0  0  0  0  0  0  0  0  0  0  0  0
    0.5460   25.4040    8.0880 H   0  0  0  0  0  0  0  0  0  0  0  0
   -1.5780   25.6010    9.8180 H   0  0  0  0  0  0  0  0  0  0  0  0
   -0.8490   23.5140    8.6910 H   0  0  0  0  0  0  0  0  0  0  0  0
    0.5540   23.3430    9.8280 H   0  0  0  0  0  0  0  0  0  0  0  0
   -2.4510   23.2240   10.5430 H   0  0  0  0  0  0  0  0  0  0  0  0
   -1.2740   21.8430   10.5400 H   0  0  0  0  0  0  0  0  0  0  0  0
   -1.7380   22.7210   12.8510 H   0  0  0  0  0  0  0  0  0  0  0  0
    0.0050   22.8650   12.3840 H   0  0  0  0  0  0  0  0  0  0  0  0
   -2.1200   25.1150   12.3780 H   0  0  0  0  0  0  0  0  0  0  0  0
   -0.7100   24.9490   13.4940 H   0  0  0  0  0  0  0  0  0  0  0  0
    0.8860   25.2490   11.6620 H   0  0  0  0  0  0  0  0  0  0  0  0
   -0.2880   26.6240   11.6670 H   0  0  0  0  0  0  0  0  0  0  0  0
    6.5330   25.7690    4.0170 H   0  0  0  0  0  0  0  0  0  0  0  0
    4.6730   24.1730    7.6150 H   0  0  0  0  0  0  0  0  0  0  0  0
    3.3910   26.2350    7.8760 H   0  0  0  0  0  0  0  0  0  0  0  0
    0.1490   32.4250    6.6310 H   0  0  0  0  0  0  0  0  0  0  0  0
    3.8710   29.1180    5.4290 H   0  0  0  0  0  0  0  0  0  0  0  0
    5.2580   27.8100    4.2840 H   0  0  0  0  0  0  0  0  0  0  0  0
    6.5300   23.3040    5.5340 S   0  0  0  0  0  0  0  0  0  0  0  0
    7.5620   23.1590    6.5720 O   0  0  0  0  0  0  0  0  0  0  0  0
    5.5950   22.1650    5.4480 O   0  0  0  0  0  0  0  0  0  0  0  0
    7.3100   23.4130    4.0180 N   0  0  0  0  0  0  0  0  0  0  0  0
    8.3010   23.7050    3.9850 H   0  0  0  0  0  0  0  0  0  0  0  0
    7.0890   22.7230    3.2830 H   0  0  0  0  0  0  0  0  0  0  0  0
  1 14  2  0  0  0  0
  1 21  1  0  0  0  0
  1 22  1  0  0  0  0
  2 18  2  0  0  0  0
  2 19  1  0  0  0  0
  2 25  1  0  0  0  0
  3  4  1  0  0  0  0
  3 16  1  0  0  0  0
  3 26  1  0  0  0  0
  3 27  1  0  0  0  0
  4  5  1  0  0  0  0
  4  9  1  0  0  0  0
  4 28  1  0  0  0  0
  5  6  1  0  0  0  0
  5 29  1  0  0  0  0
  5 30  1  0  0  0  0
  6  7  1  0  0  0  0
  6 31  1  0  0  0  0
  6 32  1  0  0  0  0
  7  8  1  0  0  0  0
  7 33  1  0  0  0  0
  7 34  1  0  0  0  0
  8  9  1  0  0  0  0
  8 35  1  0  0  0  0
  8 36  1  0  0  0  0
  9 37  1  0  0  0  0
  9 38  1  0  0  0  0
 10 11  2  0  0  0  0
 10 24  1  0  0  0  0
 10 39  1  0  0  0  0
 11 12  1  0  0  0  0
 11 45  1  0  0  0  0
 12 13  2  0  0  0  0
 12 40  1  0  0  0  0
 13 23  1  0  0  0  0
 13 41  1  0  0  0  0
 14 15  1  0  0  0  0
 15 16  1  0  0  0  0
 15 17  2  0  0  0  0
 17 18  1  0  0  0  0
 17 20  1  0  0  0  0
 19 20  1  0  0  0  0
 19 42  1  0  0  0  0
 20 21  2  0  0  0  0
 22 23  1  0  0  0  0
 22 43  1  0  0  0  0
 23 24  2  0  0  0  0
 24 44  1  0  0  0  0
 45 46  2  0  0  0  0
 45 47  2  0  0  0  0
 45 48  1  0  0  0  0
 48 49  1  0  0  0  0
 48 50  1  0  0  0  0
M  END
$$$$
