ejm_43
                    3D
 Schrodinger Suite 2022-3.
 38 39  0  0  1  0  0  0  0  0999 V2000
   -3.1730   22.6970  -29.6620 C   0  0  0  0  0  0  0  0  0  0  0  0
   -3.6360   21.5870  -28.9360 C   0  0  0  0  0  0  0  0  0  0  0  0
   -2.8280   20.9320  -28.0060 C   0  0  0  0  0  0  0  0  0  0  0  0
   -5.1510   25.4440  -31.4290 C   0  0  0  0  0  0  0  0  0  0  0  0
   -4.0480   23.2770  -30.7350 C   0  0  0  0  0  0  0  0  0  0  0  0
   -5.8560   24.9220  -32.5240 C   0  0  0  0  0  0  0  0  0  0  0  0
   -6.6750   25.7870  -33.2620 C   0  0  0  0  0  0  0  0  0  0  0  0
   -1.8740   23.1460  -29.3950 C   0  0  0  0  0  0  0  0  0  0  0  0
   -1.5270   21.3900  -27.7800 C   0  0  0  0  0  0  0  0  0  0  0  0
   -1.0470   22.5070  -28.4680 C   0  0  0  0  0  0  0  0  0  0  0  0
   -5.2320   21.0210  -29.2010 Cl  0  0  0  0  0  0  0  0  0  0  0  0
   -4.4870   22.5980  -31.6380 O   0  0  0  0  0  0  0  0  0  0  0  0
   -4.3270   24.6510  -30.5790 N   0  0  0  0  0  0  0  0  0  0  0  0
   -6.8120   27.1080  -32.9860 N   0  0  0  0  0  0  0  0  0  0  0  0
   -6.1040   27.6140  -31.9110 C   0  0  0  0  0  0  0  0  0  0  0  0
   -5.2650   26.8160  -31.1180 C   0  0  0  0  0  0  0  0  0  0  0  0
   -6.2970   29.0080  -31.6890 N   0  0  0  0  0  0  0  0  0  0  0  0
   -5.5290   29.8310  -30.8170 C   0  0  0  0  0  0  0  0  0  0  0  0
   -4.7500   29.3330  -30.0270 O   0  0  0  0  0  0  0  0  0  0  0  0
   -5.7280   31.3410  -30.9910 C   0  0  0  0  0  0  0  0  0  0  0  0
   -1.2490   24.5210  -30.2090 Cl  0  0  0  0  0  0  0  0  0  0  0  0
   -3.1900   20.0650  -27.4480 H   0  0  0  0  0  0  0  0  0  0  0  0
   -5.7970   23.8660  -32.8040 H   0  0  0  0  0  0  0  0  0  0  0  0
   -7.2560   25.4040  -34.1180 H   0  0  0  0  0  0  0  0  0  0  0  0
   -0.8820   20.8760  -27.0580 H   0  0  0  0  0  0  0  0  0  0  0  0
   -0.0350   22.8710  -28.2670 H   0  0  0  0  0  0  0  0  0  0  0  0
   -3.8910   25.1430  -29.7790 H   0  0  0  0  0  0  0  0  0  0  0  0
   -4.7090   27.2490  -30.2800 H   0  0  0  0  0  0  0  0  0  0  0  0
   -7.1270   29.4200  -32.1660 H   0  0  0  0  0  0  0  0  0  0  0  0
   -6.5770   31.5630  -31.6910 H   0  0  0  0  0  0  0  0  0  0  0  0
   -4.4340   31.9170  -31.5840 C   0  0  0  0  0  0  0  0  0  0  0  0
   -4.5620   33.0200  -31.7090 H   0  0  0  0  0  0  0  0  0  0  0  0
   -3.5730   31.7420  -30.8990 H   0  0  0  0  0  0  0  0  0  0  0  0
   -4.2180   31.4720  -32.5720 H   0  0  0  0  0  0  0  0  0  0  0  0
   -6.0460   31.9960  -29.6430 C   0  0  0  0  0  0  0  0  0  0  0  0
   -5.8470   33.0950  -29.7090 H   0  0  0  0  0  0  0  0  0  0  0  0
   -7.1190   31.8730  -29.4050 H   0  0  0  0  0  0  0  0  0  0  0  0
   -5.4180   31.5860  -28.8240 H   0  0  0  0  0  0  0  0  0  0  0  0
  1  2  2  0  0  0  0
  1  5  1  0  0  0  0
  1  8  1  0  0  0  0
  2  3  1  0  0  0  0
  2 11  1  0  0  0  0
  3  9  2  0  0  0  0
  3 22  1  0  0  0  0
  4  6  1  0  0  0  0
  4 13  1  0  0  0  0
  4 16  2  0  0  0  0
  5 12  2  0  0  0  0
  5 13  1  0  0  0  0
  6  7  2  0  0  0  0
  6 23  1  0  0  0  0
  7 14  1  0  0  0  0
  7 24  1  0  0  0  0
  8 10  2  0  0  0  0
  8 21  1  0  0  0  0
  9 10  1  0  0  0  0
  9 25  1  0  0  0  0
 10 26  1  0  0  0  0
 13 27  1  0  0  0  0
 14 15  2  0  0  0  0
 15 16  1  0  0  0  0
 15 17  1  0  0  0  0
 16 28  1  0  0  0  0
 17 18  1  0  0  0  0
 17 29  1  0  0  0  0
 18 19  2  0  0  0  0
 18 20  1  0  0  0  0
 20 30  1  0  0  0  0
 20 31  1  0  0  0  0
 20 35  1  0  0  0  0
 31 32  1  0  0  0  0
 31 33  1  0  0  0  0
 31 34  1  0  0  0  0
 35 36  1  0  0  0  0
 35 37  1  0  0  0  0
 35 38  1  0  0  0  0
M  END
$$$$
