18639-1
 OpenBabel02232411163D
Structure written by MMmdl.
 48 49  0  0  0  0  0  0  0  0999 V2000
   24.4260   10.9510   30.7460 C   0  0  0  0  0  0  0  0  0  0  0  0
   23.0950   11.2880   30.1090 C   0  0  0  0  0  0  0  0  0  0  0  0
   22.0220   11.3450   31.1240 O   0  0  0  0  0  0  0  0  0  0  0  0
   21.4400   10.1940   31.5340 C   0  0  0  0  0  0  0  0  0  0  0  0
   21.9240    9.0060   31.1040 N   0  0  0  0  0  0  0  0  0  0  0  0
   21.2320    7.8620   31.4710 C   0  0  0  0  0  0  0  0  0  0  0  0
   20.0940    7.8930   32.2690 C   0  0  0  0  0  0  0  0  0  0  0  0
   19.6010    9.1440   32.7290 C   0  0  0  0  0  0  0  0  0  0  0  0
   18.4670    9.1790   33.4980 N   0  0  0  0  0  0  0  0  0  0  0  0
   20.2890   10.3450   32.3640 C   0  0  0  0  0  0  0  0  0  0  0  0
   19.8730   11.6430   32.7290 C   0  0  0  0  0  0  0  0  0  0  0  0
   19.5840   12.7360   32.9890 N   0  0  0  0  0  0  0  0  0  0  0  0
   21.8240    6.6990   30.9260 N   0  0  0  0  0  0  0  0  0  0  0  0
   21.2650    5.4040   30.8830 C   0  0  0  0  0  0  0  0  0  0  0  0
   20.1960    5.1260   31.3820 O   0  0  0  0  0  0  0  0  0  0  0  0
   22.1010    4.4150   30.0770 C   0  0  0  0  0  0  0  0  0  0  0  0
   23.4780    4.1740   30.6230 C   0  0  0  0  0  0  0  0  0  0  0  0
   24.5570    5.0550   30.2950 C   0  0  0  0  0  0  0  0  0  0  0  0
   24.1730    6.1030   29.4670 O   0  0  0  0  0  0  0  0  0  0  0  0
   25.1100    7.2020   29.2910 C   0  0  0  0  0  0  0  0  0  0  0  0
   25.8470    4.8290   30.7480 C   0  0  0  0  0  0  0  0  0  0  0  0
   26.1060    3.7160   31.5740 C   0  0  0  0  0  0  0  0  0  0  0  0
   27.4700    3.4790   32.0570 N   0  3  0  0  0  0  0  0  0  0  0  0
   27.6320    2.6690   32.9560 O   0  5  0  0  0  0  0  0  0  0  0  0
   28.3900    4.0980   31.5350 O   0  0  0  0  0  0  0  0  0  0  0  0
   25.0520    2.8340   31.9100 C   0  0  0  0  0  0  0  0  0  0  0  0
   23.7470    3.0710   31.4180 C   0  0  0  0  0  0  0  0  0  0  0  0
   25.4260    1.7990   32.7120 O   0  0  0  0  0  0  0  0  0  0  0  0
   24.4480    0.7470   32.9640 C   0  0  0  0  0  0  0  0  0  0  0  0
   25.2120   10.9000   29.9510 H   0  0  0  0  0  0  0  0  0  0  0  0
   24.7230   11.7230   31.4870 H   0  0  0  0  0  0  0  0  0  0  0  0
   24.3910    9.9560   31.2500 H   0  0  0  0  0  0  0  0  0  0  0  0
   23.0550   12.3430   29.7440 H   0  0  0  0  0  0  0  0  0  0  0  0
   22.8130   10.5630   29.3130 H   0  0  0  0  0  0  0  0  0  0  0  0
   19.5630    6.9750   32.5310 H   0  0  0  0  0  0  0  0  0  0  0  0
   17.9670    8.3040   33.7510 H   0  0  0  0  0  0  0  0  0  0  0  0
   18.0520   10.0630   33.7940 H   0  0  0  0  0  0  0  0  0  0  0  0
   22.7290    6.8590   30.4160 H   0  0  0  0  0  0  0  0  0  0  0  0
   21.5440    3.4400   30.0300 H   0  0  0  0  0  0  0  0  0  0  0  0
   22.1950    4.8180   29.0290 H   0  0  0  0  0  0  0  0  0  0  0  0
   25.4670    7.5790   30.2730 H   0  0  0  0  0  0  0  0  0  0  0  0
   25.9420    6.8650   28.6370 H   0  0  0  0  0  0  0  0  0  0  0  0
   24.4660    7.9570   28.7810 H   0  0  0  0  0  0  0  0  0  0  0  0
   26.6750    5.4900   30.4640 H   0  0  0  0  0  0  0  0  0  0  0  0
   22.9450    2.3700   31.6610 H   0  0  0  0  0  0  0  0  0  0  0  0
   25.0540    0.0190   33.5540 H   0  0  0  0  0  0  0  0  0  0  0  0
   23.6040    1.1450   33.5670 H   0  0  0  0  0  0  0  0  0  0  0  0
   24.1120    0.2990   32.0030 H   0  0  0  0  0  0  0  0  0  0  0  0
  1  2  1  0  0  0  0
  1 30  1  0  0  0  0
  1 31  1  0  0  0  0
  1 32  1  0  0  0  0
  2  3  1  0  0  0  0
  2 33  1  0  0  0  0
  2 34  1  0  0  0  0
  3  4  1  0  0  0  0
  4 10  2  0  0  0  0
  4  5  1  0  0  0  0
  5  6  2  0  0  0  0
  6  7  1  0  0  0  0
  6 13  1  0  0  0  0
  7  8  2  0  0  0  0
  7 35  1  0  0  0  0
  8  9  1  0  0  0  0
  8 10  1  0  0  0  0
  9 36  1  0  0  0  0
  9 37  1  0  0  0  0
 10 11  1  0  0  0  0
 11 12  3  0  0  0  0
 13 14  1  0  0  0  0
 13 38  1  0  0  0  0
 14 15  2  0  0  0  0
 14 16  1  0  0  0  0
 16 17  1  0  0  0  0
 16 39  1  0  0  0  0
 16 40  1  0  0  0  0
 17 27  2  0  0  0  0
 17 18  1  0  0  0  0
 18 19  1  0  0  0  0
 18 21  2  0  0  0  0
 19 20  1  0  0  0  0
 20 41  1  0  0  0  0
 20 42  1  0  0  0  0
 20 43  1  0  0  0  0
 21 22  1  0  0  0  0
 21 44  1  0  0  0  0
 22 23  1  0  0  0  0
 22 26  2  0  0  0  0
 23 24  1  0  0  0  0
 23 25  2  0  0  0  0
 26 27  1  0  0  0  0
 26 28  1  0  0  0  0
 27 45  1  0  0  0  0
 28 29  1  0  0  0  0
 29 46  1  0  0  0  0
 29 47  1  0  0  0  0
 29 48  1  0  0  0  0
M  CHG  2  23   1  24  -1
M  END
$$$$
