p38a_2j
 OpenBabel02232411163D
Structure written by MMmdl.
 48 51  0  0  0  0  0  0  0  0999 V2000
   31.9660   39.2820   26.4380 C   0  0  0  0  0  0  0  0  0  0  0  0
   31.4920   38.6760   27.7650 C   0  0  0  0  0  0  0  0  0  0  0  0
   33.5510   39.2850   28.8770 C   0  0  0  0  0  0  0  0  0  0  0  0
   34.1170   39.9260   27.6030 C   0  0  0  0  0  0  0  0  0  0  0  0
   38.0430   36.3510   17.4150 C   0  0  0  0  0  0  0  0  0  0  0  0
   32.1070   39.3270   28.9000 O   0  0  0  0  0  0  0  0  0  0  0  0
   34.3760   35.2050   21.3740 C   0  0  0  0  0  0  0  0  0  0  0  0
   37.0480   35.9170   18.2940 C   0  0  0  0  0  0  0  0  0  0  0  0
   34.1230   39.3030   23.9280 C   0  0  0  0  0  0  0  0  0  0  0  0
   33.5090   39.2340   26.3650 C   0  0  0  0  0  0  0  0  0  0  0  0
   34.4860   38.0670   21.4900 C   0  0  0  0  0  0  0  0  0  0  0  0
   34.6310   37.3850   20.2370 C   0  0  0  0  0  0  0  0  0  0  0  0
   36.3180   36.4690   15.6700 C   0  0  0  0  0  0  0  0  0  0  0  0
   35.3610   36.0280   16.5880 C   0  0  0  0  0  0  0  0  0  0  0  0
   34.2780   37.3110   22.6830 C   0  0  0  0  0  0  0  0  0  0  0  0
   34.5050   39.4830   21.6180 C   0  0  0  0  0  0  0  0  0  0  0  0
   34.5700   36.0300   20.1710 C   0  0  0  0  0  0  0  0  0  0  0  0
   35.7000   35.7510   17.9220 C   0  0  0  0  0  0  0  0  0  0  0  0
   34.0660   35.1440   23.8900 C   0  0  0  0  0  0  0  0  0  0  0  0
   37.4110   35.6440   19.5450 F   0  0  0  0  0  0  0  0  0  0  0  0
   34.6350   35.2760   18.8720 C   0  0  0  0  0  0  0  0  0  0  0  0
   34.3340   40.1110   22.7880 N   0  0  0  0  0  0  0  0  0  0  0  0
   34.3090   33.9890   21.4140 O   0  0  0  0  0  0  0  0  0  0  0  0
   34.2570   35.9160   22.6300 N   0  0  0  0  0  0  0  0  0  0  0  0
   34.0840   37.9250   23.8980 N   0  0  0  0  0  0  0  0  0  0  0  0
   34.0010   39.9400   25.1420 N   0  0  0  0  0  0  0  0  0  0  0  0
   31.5210   38.7030   25.5950 H   0  0  0  0  0  0  0  0  0  0  0  0
   31.6250   40.3410   26.3600 H   0  0  0  0  0  0  0  0  0  0  0  0
   30.4100   38.8740   27.9430 H   0  0  0  0  0  0  0  0  0  0  0  0
   31.7170   37.5860   27.8080 H   0  0  0  0  0  0  0  0  0  0  0  0
   33.8840   38.2250   28.9710 H   0  0  0  0  0  0  0  0  0  0  0  0
   33.8220   39.8780   29.7810 H   0  0  0  0  0  0  0  0  0  0  0  0
   33.8780   41.0170   27.5890 H   0  0  0  0  0  0  0  0  0  0  0  0
   35.2290   39.8160   27.5950 H   0  0  0  0  0  0  0  0  0  0  0  0
   39.0780   36.5050   17.7320 H   0  0  0  0  0  0  0  0  0  0  0  0
   33.8540   38.1620   26.3330 H   0  0  0  0  0  0  0  0  0  0  0  0
   34.7850   37.9880   19.3360 H   0  0  0  0  0  0  0  0  0  0  0  0
   36.0240   36.6900   14.6450 H   0  0  0  0  0  0  0  0  0  0  0  0
   34.3260   35.9110   16.2490 H   0  0  0  0  0  0  0  0  0  0  0  0
   34.6520   40.1120   20.7230 H   0  0  0  0  0  0  0  0  0  0  0  0
   34.8330   35.4480   24.6520 H   0  0  0  0  0  0  0  0  0  0  0  0
   33.0450   35.3450   24.3150 H   0  0  0  0  0  0  0  0  0  0  0  0
   34.1690   34.0460   23.6860 H   0  0  0  0  0  0  0  0  0  0  0  0
   33.9250   40.9760   25.1710 H   0  0  0  0  0  0  0  0  0  0  0  0
   34.8000   34.1840   19.0740 H   0  0  0  0  0  0  0  0  0  0  0  0
   33.6240   35.3760   18.3800 H   0  0  0  0  0  0  0  0  0  0  0  0
   37.6320   36.6340   16.1090 C   0  0  0  0  0  0  0  0  0  0  0  0
   38.5270   37.1180   15.2510 F   0  0  0  0  0  0  0  0  0  0  0  0
  1  2  1  0  0  0  0
  1 10  1  0  0  0  0
  1 27  1  0  0  0  0
  1 28  1  0  0  0  0
  2  6  1  0  0  0  0
  2 29  1  0  0  0  0
  2 30  1  0  0  0  0
  3  4  1  0  0  0  0
  3  6  1  0  0  0  0
  3 31  1  0  0  0  0
  3 32  1  0  0  0  0
  4 10  1  0  0  0  0
  4 33  1  0  0  0  0
  4 34  1  0  0  0  0
  5  8  2  0  0  0  0
  5 35  1  0  0  0  0
  5 47  1  0  0  0  0
  7 17  1  0  0  0  0
  7 23  2  0  0  0  0
  7 24  1  0  0  0  0
  8 18  1  0  0  0  0
  8 20  1  0  0  0  0
  9 22  2  0  0  0  0
  9 25  1  0  0  0  0
  9 26  1  0  0  0  0
 10 26  1  0  0  0  0
 10 36  1  0  0  0  0
 11 12  1  0  0  0  0
 11 15  1  0  0  0  0
 11 16  2  0  0  0  0
 12 17  2  0  0  0  0
 12 37  1  0  0  0  0
 13 14  1  0  0  0  0
 13 38  1  0  0  0  0
 13 47  2  0  0  0  0
 14 18  2  0  0  0  0
 14 39  1  0  0  0  0
 15 24  1  0  0  0  0
 15 25  2  0  0  0  0
 16 22  1  0  0  0  0
 16 40  1  0  0  0  0
 17 21  1  0  0  0  0
 18 21  1  0  0  0  0
 19 24  1  0  0  0  0
 19 41  1  0  0  0  0
 19 42  1  0  0  0  0
 19 43  1  0  0  0  0
 21 45  1  0  0  0  0
 21 46  1  0  0  0  0
 26 44  1  0  0  0  0
 47 48  1  0  0  0  0
M  END
$$$$
