18658-1
 OpenBabel02232411163D
Structure written by MMmdl.
 47 48  0  0  0  0  0  0  0  0999 V2000
   23.0670   12.2900   28.7620 O   0  0  0  0  0  0  0  0  0  0  0  0
   23.4080   10.9620   29.2230 C   0  0  0  0  0  0  0  0  0  0  0  0
   23.5430   11.0670   30.7390 C   0  0  0  0  0  0  0  0  0  0  0  0
   22.2300   11.1640   31.3890 O   0  0  0  0  0  0  0  0  0  0  0  0
   21.5500   10.0270   31.6740 C   0  0  0  0  0  0  0  0  0  0  0  0
   22.0040    8.8440   31.2020 N   0  0  0  0  0  0  0  0  0  0  0  0
   21.2480    7.7140   31.4820 C   0  0  0  0  0  0  0  0  0  0  0  0
   20.0880    7.7590   32.2500 C   0  0  0  0  0  0  0  0  0  0  0  0
   19.6260    9.0070   32.7460 C   0  0  0  0  0  0  0  0  0  0  0  0
   18.4760    9.0550   33.4930 N   0  0  0  0  0  0  0  0  0  0  0  0
   20.3610   10.1980   32.4410 C   0  0  0  0  0  0  0  0  0  0  0  0
   19.9670   11.5000   32.8160 C   0  0  0  0  0  0  0  0  0  0  0  0
   19.6970   12.5980   33.0740 N   0  0  0  0  0  0  0  0  0  0  0  0
   21.7940    6.5600   30.8830 N   0  0  0  0  0  0  0  0  0  0  0  0
   21.1850    5.2860   30.7910 C   0  0  0  0  0  0  0  0  0  0  0  0
   20.1110    5.0370   31.2960 O   0  0  0  0  0  0  0  0  0  0  0  0
   21.9750    4.3020   29.9410 C   0  0  0  0  0  0  0  0  0  0  0  0
   23.3020    3.9460   30.5460 C   0  0  0  0  0  0  0  0  0  0  0  0
   24.4360    4.7620   30.3220 C   0  0  0  0  0  0  0  0  0  0  0  0
   24.1760    5.8400   29.4810 O   0  0  0  0  0  0  0  0  0  0  0  0
   25.2020    6.8600   29.3570 C   0  0  0  0  0  0  0  0  0  0  0  0
   25.6810    4.4660   30.8890 C   0  0  0  0  0  0  0  0  0  0  0  0
   25.8160    3.3360   31.6910 C   0  0  0  0  0  0  0  0  0  0  0  0
   24.6970    2.5070   31.9000 C   0  0  0  0  0  0  0  0  0  0  0  0
   23.4480    2.7990   31.3320 C   0  0  0  0  0  0  0  0  0  0  0  0
   24.9740    1.4330   32.7210 O   0  0  0  0  0  0  0  0  0  0  0  0
   23.9670    0.3960   32.8410 C   0  0  0  0  0  0  0  0  0  0  0  0
   22.9370   12.2290   27.7590 H   0  0  0  0  0  0  0  0  0  0  0  0
   24.3910   10.6690   28.7710 H   0  0  0  0  0  0  0  0  0  0  0  0
   22.6030   10.2550   28.9180 H   0  0  0  0  0  0  0  0  0  0  0  0
   23.9770   12.0540   31.0380 H   0  0  0  0  0  0  0  0  0  0  0  0
   24.1210   10.2050   31.1500 H   0  0  0  0  0  0  0  0  0  0  0  0
   19.5160    6.8530   32.4610 H   0  0  0  0  0  0  0  0  0  0  0  0
   17.9740    8.1850   33.7580 H   0  0  0  0  0  0  0  0  0  0  0  0
   18.0910    9.9400   33.8210 H   0  0  0  0  0  0  0  0  0  0  0  0
   22.7200    6.6990   30.4050 H   0  0  0  0  0  0  0  0  0  0  0  0
   21.3610    3.3760   29.8000 H   0  0  0  0  0  0  0  0  0  0  0  0
   22.1480    4.7730   28.9340 H   0  0  0  0  0  0  0  0  0  0  0  0
   26.0820    6.4400   28.8250 H   0  0  0  0  0  0  0  0  0  0  0  0
   24.6820    7.6270   28.7390 H   0  0  0  0  0  0  0  0  0  0  0  0
   25.4730    7.2630   30.3570 H   0  0  0  0  0  0  0  0  0  0  0  0
   26.5530    5.1000   30.7100 H   0  0  0  0  0  0  0  0  0  0  0  0
   26.7820    3.0940   32.1430 H   0  0  0  0  0  0  0  0  0  0  0  0
   22.5940    2.1420   31.4980 H   0  0  0  0  0  0  0  0  0  0  0  0
   24.4920   -0.3520   33.4830 H   0  0  0  0  0  0  0  0  0  0  0  0
   23.0630    0.7940   33.3490 H   0  0  0  0  0  0  0  0  0  0  0  0
   23.7380   -0.0290   31.8400 H   0  0  0  0  0  0  0  0  0  0  0  0
  1  2  1  0  0  0  0
  1 28  1  0  0  0  0
  2  3  1  0  0  0  0
  2 29  1  0  0  0  0
  2 30  1  0  0  0  0
  3  4  1  0  0  0  0
  3 31  1  0  0  0  0
  3 32  1  0  0  0  0
  4  5  1  0  0  0  0
  5 11  2  0  0  0  0
  5  6  1  0  0  0  0
  6  7  2  0  0  0  0
  7  8  1  0  0  0  0
  7 14  1  0  0  0  0
  8  9  2  0  0  0  0
  8 33  1  0  0  0  0
  9 10  1  0  0  0  0
  9 11  1  0  0  0  0
 10 34  1  0  0  0  0
 10 35  1  0  0  0  0
 11 12  1  0  0  0  0
 12 13  3  0  0  0  0
 14 15  1  0  0  0  0
 14 36  1  0  0  0  0
 15 16  2  0  0  0  0
 15 17  1  0  0  0  0
 17 18  1  0  0  0  0
 17 37  1  0  0  0  0
 17 38  1  0  0  0  0
 18 25  2  0  0  0  0
 18 19  1  0  0  0  0
 19 20  1  0  0  0  0
 19 22  2  0  0  0  0
 20 21  1  0  0  0  0
 21 39  1  0  0  0  0
 21 40  1  0  0  0  0
 21 41  1  0  0  0  0
 22 23  1  0  0  0  0
 22 42  1  0  0  0  0
 23 24  2  0  0  0  0
 23 43  1  0  0  0  0
 24 25  1  0  0  0  0
 24 26  1  0  0  0  0
 25 44  1  0  0  0  0
 26 27  1  0  0  0  0
 27 45  1  0  0  0  0
 27 46  1  0  0  0  0
 27 47  1  0  0  0  0
M  END
$$$$
