18637-1
 OpenBabel02232411163D
Structure written by MMmdl.
 53 54  0  0  0  0  0  0  0  0999 V2000
   24.4310   10.9490   30.7670 C   0  0  0  0  0  0  0  0  0  0  0  0
   23.0980   11.2940   30.1380 C   0  0  0  0  0  0  0  0  0  0  0  0
   22.0280   11.3360   31.1560 O   0  0  0  0  0  0  0  0  0  0  0  0
   21.4400   10.1810   31.5480 C   0  0  0  0  0  0  0  0  0  0  0  0
   21.9120    8.9970   31.0960 N   0  0  0  0  0  0  0  0  0  0  0  0
   21.2070    7.8510   31.4420 C   0  0  0  0  0  0  0  0  0  0  0  0
   20.0760    7.8810   32.2510 C   0  0  0  0  0  0  0  0  0  0  0  0
   19.5980    9.1280   32.7340 C   0  0  0  0  0  0  0  0  0  0  0  0
   18.4680    9.1620   33.5120 N   0  0  0  0  0  0  0  0  0  0  0  0
   20.2900   10.3300   32.3800 C   0  0  0  0  0  0  0  0  0  0  0  0
   19.8780   11.6250   32.7550 C   0  0  0  0  0  0  0  0  0  0  0  0
   19.5870   12.7170   33.0200 N   0  0  0  0  0  0  0  0  0  0  0  0
   21.7710    6.6970   30.8600 N   0  0  0  0  0  0  0  0  0  0  0  0
   21.1860    5.4100   30.7800 C   0  0  0  0  0  0  0  0  0  0  0  0
   20.1180    5.1440   31.2880 O   0  0  0  0  0  0  0  0  0  0  0  0
   21.9970    4.4390   29.9310 C   0  0  0  0  0  0  0  0  0  0  0  0
   23.3320    4.1150   30.5330 C   0  0  0  0  0  0  0  0  0  0  0  0
   24.4530    4.9480   30.3270 C   0  0  0  0  0  0  0  0  0  0  0  0
   24.1850    6.0360   29.5130 O   0  0  0  0  0  0  0  0  0  0  0  0
   25.1720    7.1000   29.4200 C   0  0  0  0  0  0  0  0  0  0  0  0
   25.7070    4.6710   30.8910 C   0  0  0  0  0  0  0  0  0  0  0  0
   25.8670    3.5240   31.6720 C   0  0  0  0  0  0  0  0  0  0  0  0
   24.7390    2.6690   31.8750 C   0  0  0  0  0  0  0  0  0  0  0  0
   23.5000    2.9600   31.3120 C   0  0  0  0  0  0  0  0  0  0  0  0
   25.0270    1.5870   32.6900 O   0  0  0  0  0  0  0  0  0  0  0  0
   24.0580    0.5100   32.7500 C   0  0  0  0  0  0  0  0  0  0  0  0
   27.0970    3.1950   32.3130 N   0  0  0  0  0  0  0  0  0  0  0  0
   28.3870    3.3890   31.7580 C   0  0  0  0  0  0  0  0  0  0  0  0
   28.5270    3.9020   30.6600 O   0  0  0  0  0  0  0  0  0  0  0  0
   29.5030    2.9210   32.6380 C   0  0  0  0  0  0  0  0  0  0  0  0
   24.3970    9.9520   31.2650 H   0  0  0  0  0  0  0  0  0  0  0  0
   24.7320   11.7160   31.5120 H   0  0  0  0  0  0  0  0  0  0  0  0
   25.2140   10.9040   29.9690 H   0  0  0  0  0  0  0  0  0  0  0  0
   23.0580   12.3550   29.7890 H   0  0  0  0  0  0  0  0  0  0  0  0
   22.8150   10.5810   29.3310 H   0  0  0  0  0  0  0  0  0  0  0  0
   19.5370    6.9650   32.5020 H   0  0  0  0  0  0  0  0  0  0  0  0
   18.0600   10.0440   33.8200 H   0  0  0  0  0  0  0  0  0  0  0  0
   17.9690    8.2870   33.7650 H   0  0  0  0  0  0  0  0  0  0  0  0
   22.6840    6.8520   30.3620 H   0  0  0  0  0  0  0  0  0  0  0  0
   21.4020    3.4980   29.8020 H   0  0  0  0  0  0  0  0  0  0  0  0
   22.1510    4.9030   28.9190 H   0  0  0  0  0  0  0  0  0  0  0  0
   25.4540    7.4620   30.4310 H   0  0  0  0  0  0  0  0  0  0  0  0
   26.0440    6.7410   28.8360 H   0  0  0  0  0  0  0  0  0  0  0  0
   24.5990    7.8780   28.8620 H   0  0  0  0  0  0  0  0  0  0  0  0
   26.5530    5.3420   30.7220 H   0  0  0  0  0  0  0  0  0  0  0  0
   22.6540    2.2880   31.4720 H   0  0  0  0  0  0  0  0  0  0  0  0
   24.5990   -0.2360   33.3790 H   0  0  0  0  0  0  0  0  0  0  0  0
   23.1310    0.8590   33.2520 H   0  0  0  0  0  0  0  0  0  0  0  0
   23.8660    0.1130   31.7300 H   0  0  0  0  0  0  0  0  0  0  0  0
   27.0160    2.5910   33.1500 H   0  0  0  0  0  0  0  0  0  0  0  0
   29.5010    1.8040   32.7400 H   0  0  0  0  0  0  0  0  0  0  0  0
   30.4980    3.2190   32.2180 H   0  0  0  0  0  0  0  0  0  0  0  0
   29.4310    3.3530   33.6700 H   0  0  0  0  0  0  0  0  0  0  0  0
  1  2  1  0  0  0  0
  1 31  1  0  0  0  0
  1 32  1  0  0  0  0
  1 33  1  0  0  0  0
  2  3  1  0  0  0  0
  2 34  1  0  0  0  0
  2 35  1  0  0  0  0
  3  4  1  0  0  0  0
  4 10  2  0  0  0  0
  4  5  1  0  0  0  0
  5  6  2  0  0  0  0
  6  7  1  0  0  0  0
  6 13  1  0  0  0  0
  7  8  2  0  0  0  0
  7 36  1  0  0  0  0
  8  9  1  0  0  0  0
  8 10  1  0  0  0  0
  9 37  1  0  0  0  0
  9 38  1  0  0  0  0
 10 11  1  0  0  0  0
 11 12  3  0  0  0  0
 13 14  1  0  0  0  0
 13 39  1  0  0  0  0
 14 15  2  0  0  0  0
 14 16  1  0  0  0  0
 16 17  1  0  0  0  0
 16 40  1  0  0  0  0
 16 41  1  0  0  0  0
 17 24  2  0  0  0  0
 17 18  1  0  0  0  0
 18 19  1  0  0  0  0
 18 21  2  0  0  0  0
 19 20  1  0  0  0  0
 20 42  1  0  0  0  0
 20 43  1  0  0  0  0
 20 44  1  0  0  0  0
 21 22  1  0  0  0  0
 21 45  1  0  0  0  0
 22 23  2  0  0  0  0
 22 27  1  0  0  0  0
 23 24  1  0  0  0  0
 23 25  1  0  0  0  0
 24 46  1  0  0  0  0
 25 26  1  0  0  0  0
 26 47  1  0  0  0  0
 26 48  1  0  0  0  0
 26 49  1  0  0  0  0
 27 28  1  0  0  0  0
 27 50  1  0  0  0  0
 28 29  2  0  0  0  0
 28 30  1  0  0  0  0
 30 51  1  0  0  0  0
 30 52  1  0  0  0  0
 30 53  1  0  0  0  0
M  END
$$$$
