p38a_2o
 OpenBabel02232411163D
Structure written by MMmdl.
 55 58  0  0  0  0  0  0  0  0999 V2000
   38.2900   36.5380   17.1620 C   0  0  0  0  0  0  0  0  0  0  0  0
   34.3440   35.1530   21.1810 C   0  0  0  0  0  0  0  0  0  0  0  0
   37.5300   36.0880   18.2400 C   0  0  0  0  0  0  0  0  0  0  0  0
   33.4950   39.2650   23.5470 C   0  0  0  0  0  0  0  0  0  0  0  0
   34.3990   38.0240   21.2530 C   0  0  0  0  0  0  0  0  0  0  0  0
   34.9570   37.3400   20.1180 C   0  0  0  0  0  0  0  0  0  0  0  0
   37.6150   36.6820   15.9420 C   0  0  0  0  0  0  0  0  0  0  0  0
   36.2630   36.3730   15.7670 C   0  0  0  0  0  0  0  0  0  0  0  0
   35.5260   35.9080   16.8610 C   0  0  0  0  0  0  0  0  0  0  0  0
   33.7960   37.2840   22.3120 C   0  0  0  0  0  0  0  0  0  0  0  0
   34.4430   39.4360   21.4060 C   0  0  0  0  0  0  0  0  0  0  0  0
   34.9530   35.9870   20.1150 C   0  0  0  0  0  0  0  0  0  0  0  0
   36.1670   35.7580   18.0940 C   0  0  0  0  0  0  0  0  0  0  0  0
   38.0830   35.9670   19.4380 F   0  0  0  0  0  0  0  0  0  0  0  0
   35.4930   35.1350   19.1540 O   0  0  0  0  0  0  0  0  0  0  0  0
   34.0300   40.0640   22.5180 N   0  0  0  0  0  0  0  0  0  0  0  0
   34.3780   33.9390   21.2290 O   0  0  0  0  0  0  0  0  0  0  0  0
   33.6550   35.8840   22.2100 N   0  0  0  0  0  0  0  0  0  0  0  0
   33.3500   37.8960   23.4510 N   0  0  0  0  0  0  0  0  0  0  0  0
   33.0580   39.9180   24.6810 N   0  0  0  0  0  0  0  0  0  0  0  0
   39.3450   36.8030   17.2700 H   0  0  0  0  0  0  0  0  0  0  0  0
   35.3770   37.9370   19.3070 H   0  0  0  0  0  0  0  0  0  0  0  0
   35.7720   36.5030   14.8000 H   0  0  0  0  0  0  0  0  0  0  0  0
   34.4610   35.6820   16.7450 H   0  0  0  0  0  0  0  0  0  0  0  0
   34.8320   40.0650   20.5890 H   0  0  0  0  0  0  0  0  0  0  0  0
   33.2950   40.9240   24.7930 H   0  0  0  0  0  0  0  0  0  0  0  0
   38.2890   37.1760   14.9070 F   0  0  0  0  0  0  0  0  0  0  0  0
   33.6030   37.6490   27.7450 C   0  0  0  0  0  0  0  0  0  0  0  0
   33.9730   38.5050   26.5310 C   0  0  0  0  0  0  0  0  0  0  0  0
   32.7310   39.2400   25.9780 C   0  0  0  0  0  0  0  0  0  0  0  0
   31.5040   38.3210   25.8280 C   0  0  0  0  0  0  0  0  0  0  0  0
   31.3080   37.4430   27.0700 C   0  0  0  0  0  0  0  0  0  0  0  0
   32.5240   36.7440   27.4180 O   0  0  0  0  0  0  0  0  0  0  0  0
   33.2990   38.2840   28.6090 H   0  0  0  0  0  0  0  0  0  0  0  0
   34.4220   36.9420   28.0160 H   0  0  0  0  0  0  0  0  0  0  0  0
   34.4050   37.8490   25.7390 H   0  0  0  0  0  0  0  0  0  0  0  0
   34.7390   39.2620   26.8310 H   0  0  0  0  0  0  0  0  0  0  0  0
   32.4600   40.0820   26.6810 H   0  0  0  0  0  0  0  0  0  0  0  0
   30.5940   38.9510   25.6710 H   0  0  0  0  0  0  0  0  0  0  0  0
   31.6120   37.6580   24.9350 H   0  0  0  0  0  0  0  0  0  0  0  0
   30.9690   38.0490   27.9410 H   0  0  0  0  0  0  0  0  0  0  0  0
   30.5990   36.6080   26.8630 H   0  0  0  0  0  0  0  0  0  0  0  0
   32.8250   35.1270   23.2070 C   0  0  0  0  0  0  0  0  0  0  0  0
   31.8070   35.6170   23.2330 H   0  0  0  0  0  0  0  0  0  0  0  0
   32.6920   34.0770   22.8150 H   0  0  0  0  0  0  0  0  0  0  0  0
   33.3610   35.0750   24.6380 C   0  0  0  0  0  0  0  0  0  0  0  0
   33.1120   36.0560   25.1510 H   0  0  0  0  0  0  0  0  0  0  0  0
   32.7240   34.3150   25.1810 H   0  0  0  0  0  0  0  0  0  0  0  0
   35.0720   34.7250   24.8130 S   0  0  0  0  0  0  0  0  0  0  0  0
   35.4020   34.6710   26.2390 O   0  0  0  0  0  0  0  0  0  0  0  0
   35.8390   35.6850   24.0210 O   0  0  0  0  0  0  0  0  0  0  0  0
   35.2240   33.1370   24.1260 C   0  0  0  0  0  0  0  0  0  0  0  0
   34.9700   33.1160   23.0310 H   0  0  0  0  0  0  0  0  0  0  0  0
   36.2580   32.7320   24.2110 H   0  0  0  0  0  0  0  0  0  0  0  0
   34.5390   32.3950   24.6180 H   0  0  0  0  0  0  0  0  0  0  0  0
  1  3  2  0  0  0  0
  1  7  1  0  0  0  0
  1 21  1  0  0  0  0
  2 12  1  0  0  0  0
  2 17  2  0  0  0  0
  2 18  1  0  0  0  0
  3 13  1  0  0  0  0
  3 14  1  0  0  0  0
  4 16  2  0  0  0  0
  4 19  1  0  0  0  0
  4 20  1  0  0  0  0
  5  6  1  0  0  0  0
  5 10  1  0  0  0  0
  5 11  2  0  0  0  0
  6 12  2  0  0  0  0
  6 22  1  0  0  0  0
  7  8  2  0  0  0  0
  7 27  1  0  0  0  0
  8  9  1  0  0  0  0
  8 23  1  0  0  0  0
  9 13  2  0  0  0  0
  9 24  1  0  0  0  0
 10 18  1  0  0  0  0
 10 19  2  0  0  0  0
 11 16  1  0  0  0  0
 11 25  1  0  0  0  0
 12 15  1  0  0  0  0
 13 15  1  0  0  0  0
 18 43  1  0  0  0  0
 20 26  1  0  0  0  0
 20 30  1  0  0  0  0
 28 29  1  0  0  0  0
 28 33  1  0  0  0  0
 28 34  1  0  0  0  0
 28 35  1  0  0  0  0
 29 30  1  0  0  0  0
 29 36  1  0  0  0  0
 29 37  1  0  0  0  0
 30 31  1  0  0  0  0
 30 38  1  0  0  0  0
 31 32  1  0  0  0  0
 31 39  1  0  0  0  0
 31 40  1  0  0  0  0
 32 33  1  0  0  0  0
 32 41  1  0  0  0  0
 32 42  1  0  0  0  0
 43 44  1  0  0  0  0
 43 45  1  0  0  0  0
 43 46  1  0  0  0  0
 46 47  1  0  0  0  0
 46 48  1  0  0  0  0
 46 49  1  0  0  0  0
 49 50  2  0  0  0  0
 49 51  2  0  0  0  0
 49 52  1  0  0  0  0
 52 53  1  0  0  0  0
 52 54  1  0  0  0  0
 52 55  1  0  0  0  0
M  END
$$$$
