18660-1
                    3D
 Schrodinger Suite 2022-3.
 52 53  0  0  1  0  0  0  0  0999 V2000
   25.7920    4.7990   30.6970 C   0  0  0  0  0  0  0  0  0  0  0  0
   24.4910    5.0060   30.2210 C   0  0  0  0  0  0  0  0  0  0  0  0
   23.4320    4.1240   30.5400 C   0  0  0  0  0  0  0  0  0  0  0  0
   23.7080    3.0130   31.3450 C   0  0  0  0  0  0  0  0  0  0  0  0
   25.0080    2.8160   31.8300 C   0  0  0  0  0  0  0  0  0  0  0  0
   26.0570    3.7040   31.5130 C   0  0  0  0  0  0  0  0  0  0  0  0
   22.0470    4.3540   30.0050 C   0  0  0  0  0  0  0  0  0  0  0  0
   21.2310    5.3310   30.8380 C   0  0  0  0  0  0  0  0  0  0  0  0
   21.7830    6.6350   30.8620 N   0  0  0  0  0  0  0  0  0  0  0  0
   21.2290    7.7830   31.4590 C   0  0  0  0  0  0  0  0  0  0  0  0
   20.1780    5.0560   31.3720 O   0  0  0  0  0  0  0  0  0  0  0  0
   21.9060    8.9370   31.0810 N   0  0  0  0  0  0  0  0  0  0  0  0
   21.4690   10.1130   31.5810 C   0  0  0  0  0  0  0  0  0  0  0  0
   20.3810   10.2540   32.4890 C   0  0  0  0  0  0  0  0  0  0  0  0
   19.6690    9.0520   32.8180 C   0  0  0  0  0  0  0  0  0  0  0  0
   20.1240    7.8100   32.3050 C   0  0  0  0  0  0  0  0  0  0  0  0
   25.4180    1.7830   32.6460 O   0  0  0  0  0  0  0  0  0  0  0  0
   24.4620    0.7350   32.9510 C   0  0  0  0  0  0  0  0  0  0  0  0
   24.1140    6.0530   29.3820 O   0  0  0  0  0  0  0  0  0  0  0  0
   25.0300    7.1770   29.2710 C   0  0  0  0  0  0  0  0  0  0  0  0
   18.5330    9.0910   33.5830 N   0  0  0  0  0  0  0  0  0  0  0  0
   20.0280   11.5340   32.9630 C   0  0  0  0  0  0  0  0  0  0  0  0
   22.0500   11.2610   31.1420 O   0  0  0  0  0  0  0  0  0  0  0  0
   23.0050   11.1400   30.0080 C   0  0  0  0  0  0  0  0  0  0  0  0
   23.6580   12.5010   29.8610 C   0  0  0  0  0  0  0  0  0  0  0  0
   19.7650   12.6050   33.3230 N   0  0  0  0  0  0  0  0  0  0  0  0
   26.6070    5.4780   30.4350 H   0  0  0  0  0  0  0  0  0  0  0  0
   22.9120    2.3080   31.5840 H   0  0  0  0  0  0  0  0  0  0  0  0
   19.5880    6.8930   32.5620 H   0  0  0  0  0  0  0  0  0  0  0  0
   21.4960    3.3780   29.9590 H   0  0  0  0  0  0  0  0  0  0  0  0
   22.1250    4.7690   28.9630 H   0  0  0  0  0  0  0  0  0  0  0  0
   22.6760    6.8010   30.3270 H   0  0  0  0  0  0  0  0  0  0  0  0
   23.6230    1.1450   33.5530 H   0  0  0  0  0  0  0  0  0  0  0  0
   25.0850    0.0340   33.5560 H   0  0  0  0  0  0  0  0  0  0  0  0
   24.1130    0.2490   32.0140 H   0  0  0  0  0  0  0  0  0  0  0  0
   25.3430    7.5340   30.2770 H   0  0  0  0  0  0  0  0  0  0  0  0
   25.8990    6.8770   28.6480 H   0  0  0  0  0  0  0  0  0  0  0  0
   24.3970    7.9370   28.7580 H   0  0  0  0  0  0  0  0  0  0  0  0
   18.0440    8.2180   33.8610 H   0  0  0  0  0  0  0  0  0  0  0  0
   18.1630    9.9740   33.9370 H   0  0  0  0  0  0  0  0  0  0  0  0
   22.4110   10.8390   29.1150 H   0  0  0  0  0  0  0  0  0  0  0  0
   23.7700   10.3710   30.2810 H   0  0  0  0  0  0  0  0  0  0  0  0
   24.1770   12.7550   30.8290 H   0  0  0  0  0  0  0  0  0  0  0  0
   24.5050   12.3400   29.1210 H   0  0  0  0  0  0  0  0  0  0  0  0
   27.0670    3.5330   31.8950 H   0  0  0  0  0  0  0  0  0  0  0  0
   22.6620   13.8570   29.3330 S   0  0  0  0  0  0  0  0  0  0  0  0
   21.5370   13.4540   28.4800 O   0  0  0  0  0  0  0  0  0  0  0  0
   23.5370   14.8520   28.6890 O   0  0  0  0  0  0  0  0  0  0  0  0
   22.0200   14.4920   30.8150 C   0  0  0  0  0  0  0  0  0  0  0  0
   21.4800   15.4630   30.6610 H   0  0  0  0  0  0  0  0  0  0  0  0
   21.2930   13.7790   31.2930 H   0  0  0  0  0  0  0  0  0  0  0  0
   22.8100   14.6900   31.5880 H   0  0  0  0  0  0  0  0  0  0  0  0
  1  2  1  0  0  0  0
  1  6  2  0  0  0  0
  1 27  1  0  0  0  0
  2  3  2  0  0  0  0
  2 19  1  0  0  0  0
  3  4  1  0  0  0  0
  3  7  1  0  0  0  0
  4  5  2  0  0  0  0
  4 28  1  0  0  0  0
  5  6  1  0  0  0  0
  5 17  1  0  0  0  0
  6 45  1  0  0  0  0
  7  8  1  0  0  0  0
  7 30  1  0  0  0  0
  7 31  1  0  0  0  0
  8  9  1  0  0  0  0
  8 11  2  0  0  0  0
  9 10  1  0  0  0  0
  9 32  1  0  0  0  0
 10 12  1  0  0  0  0
 10 16  2  0  0  0  0
 12 13  2  0  0  0  0
 13 14  1  0  0  0  0
 13 23  1  0  0  0  0
 14 15  2  0  0  0  0
 14 22  1  0  0  0  0
 15 16  1  0  0  0  0
 15 21  1  0  0  0  0
 16 29  1  0  0  0  0
 17 18  1  0  0  0  0
 18 33  1  0  0  0  0
 18 34  1  0  0  0  0
 18 35  1  0  0  0  0
 19 20  1  0  0  0  0
 20 36  1  0  0  0  0
 20 37  1  0  0  0  0
 20 38  1  0  0  0  0
 21 39  1  0  0  0  0
 21 40  1  0  0  0  0
 22 26  3  0  0  0  0
 23 24  1  0  0  0  0
 24 25  1  0  0  0  0
 24 41  1  0  0  0  0
 24 42  1  0  0  0  0
 25 43  1  0  0  0  0
 25 44  1  0  0  0  0
 25 46  1  0  0  0  0
 46 47  2  0  0  0  0
 46 48  2  0  0  0  0
 46 49  1  0  0  0  0
 49 50  1  0  0  0  0
 49 51  1  0  0  0  0
 49 52  1  0  0  0  0
M  END
$$$$
