7a
 OpenBabel02232411173D

 58 60  0  0  1  0  0  0  0  0999 V2000
   18.1760  -13.0640   21.5100 N   0  0  0  0  0  0  0  0  0  0  0  0
   17.9190  -11.7220   20.9000 C   0  0  2  0  0  0  0  0  0  0  0  0
   17.2810  -13.6360   22.3740 C   0  0  0  0  0  0  0  0  0  0  0  0
   16.2420  -13.0600   22.6900 O   0  0  0  0  0  0  0  0  0  0  0  0
   16.5060  -11.6580   20.2510 C   0  0  0  0  0  0  0  0  0  0  0  0
   16.0750  -12.5240   19.5040 O   0  0  0  0  0  0  0  0  0  0  0  0
   19.0280  -11.5370   19.8450 C   0  0  0  0  0  0  0  0  0  0  0  0
   17.6190  -15.0410   22.9520 C   0  0  2  0  0  0  0  0  0  0  0  0
   15.8260  -10.4850   20.5180 N   0  0  0  0  0  0  0  0  0  0  0  0
   20.1080  -12.5950   20.1320 C   0  0  0  0  0  0  0  0  0  0  0  0
   16.3310  -15.8850   22.9280 N   0  3  0  0  0  0  0  0  0  0  0  0
   18.1140  -14.9560   24.4090 C   0  0  0  0  0  0  0  0  0  0  0  0
   14.4210  -10.2240   20.1160 C   0  0  0  0  0  0  0  0  0  0  0  0
   19.4530  -13.6700   21.0190 C   0  0  0  0  0  0  0  0  0  0  0  0
   19.5710  -14.5760   24.5170 C   0  0  0  0  0  0  0  0  0  0  0  0
   13.4080  -10.6640   21.1460 C   0  0  0  0  0  0  0  0  0  0  0  0
   19.9450  -13.4080   25.1900 C   0  0  0  0  0  0  0  0  0  0  0  0
   12.7520  -11.9080   21.0810 C   0  0  0  0  0  0  0  0  0  0  0  0
   21.2960  -13.0670   25.3210 C   0  0  0  0  0  0  0  0  0  0  0  0
   11.7550  -12.1930   22.0310 C   0  0  0  0  0  0  0  0  0  0  0  0
   22.2850  -13.9110   24.8090 C   0  0  0  0  0  0  0  0  0  0  0  0
   11.4090  -11.2730   23.0140 C   0  0  0  0  0  0  0  0  0  0  0  0
   21.9150  -15.0930   24.1550 C   0  0  0  0  0  0  0  0  0  0  0  0
   12.0930  -10.0490   23.1100 C   0  0  0  0  0  0  0  0  0  0  0  0
   20.5670  -15.4230   24.0030 C   0  0  0  0  0  0  0  0  0  0  0  0
   13.0930   -9.7600   22.1740 C   0  0  0  0  0  0  0  0  0  0  0  0
   18.0270  -10.9450   21.7060 H   0  0  0  0  0  0  0  0  0  0  0  0
   18.6310  -11.6770   18.8130 H   0  0  0  0  0  0  0  0  0  0  0  0
   19.4490  -10.5170   19.9470 H   0  0  0  0  0  0  0  0  0  0  0  0
   18.3690  -15.6050   22.3260 H   0  0  0  0  0  0  0  0  0  0  0  0
   16.2400   -9.7970   21.1750 H   0  0  0  0  0  0  0  0  0  0  0  0
   20.4760  -13.0560   19.1840 H   0  0  0  0  0  0  0  0  0  0  0  0
   20.9740  -12.1380   20.6620 H   0  0  0  0  0  0  0  0  0  0  0  0
   16.5430  -16.8560   23.3060 H   0  0  0  0  0  0  0  0  0  0  0  0
   15.5850  -15.4190   23.5390 H   0  0  0  0  0  0  0  0  0  0  0  0
   15.9750  -15.9950   21.9390 H   0  0  0  0  0  0  0  0  0  0  0  0
   17.4740  -14.2360   24.9810 H   0  0  0  0  0  0  0  0  0  0  0  0
   18.0040  -15.9680   24.8920 H   0  0  0  0  0  0  0  0  0  0  0  0
   14.3500   -9.1070   19.9750 H   0  0  0  0  0  0  0  0  0  0  0  0
   14.2340  -10.7130   19.1220 H   0  0  0  0  0  0  0  0  0  0  0  0
   20.1100  -13.9270   21.8880 H   0  0  0  0  0  0  0  0  0  0  0  0
   19.2330  -14.5930   20.4220 H   0  0  0  0  0  0  0  0  0  0  0  0
   19.1850  -12.7720   25.6350 H   0  0  0  0  0  0  0  0  0  0  0  0
   21.5530  -12.1360   25.8290 H   0  0  0  0  0  0  0  0  0  0  0  0
   11.2410  -13.1570   22.0060 H   0  0  0  0  0  0  0  0  0  0  0  0
   23.3430  -13.6630   24.9260 H   0  0  0  0  0  0  0  0  0  0  0  0
   22.6750  -15.7740   23.7600 H   0  0  0  0  0  0  0  0  0  0  0  0
   20.2860  -16.3480   23.4930 H   0  0  0  0  0  0  0  0  0  0  0  0
   13.6400   -8.8190   22.2430 H   0  0  0  0  0  0  0  0  0  0  0  0
   10.6040  -11.5140   23.7130 H   0  0  0  0  0  0  0  0  0  0  0  0
   13.0700  -12.9480   20.0540 C   0  0  0  0  0  0  0  0  0  0  0  0
   12.3090  -13.7660   20.0510 H   0  0  0  0  0  0  0  0  0  0  0  0
   13.1110  -12.5160   19.0320 H   0  0  0  0  0  0  0  0  0  0  0  0
   14.0660  -13.4030   20.2790 H   0  0  0  0  0  0  0  0  0  0  0  0
   11.7750   -9.1050   24.2250 C   0  0  0  0  0  0  0  0  0  0  0  0
   12.0510   -8.0580   23.9810 H   0  0  0  0  0  0  0  0  0  0  0  0
   10.6860   -9.1460   24.4770 H   0  0  0  0  0  0  0  0  0  0  0  0
   12.3450   -9.4180   25.1270 H   0  0  0  0  0  0  0  0  0  0  0  0
  1  2  1  0  0  0  0
  1 14  1  0  0  0  0
  1  3  1  0  0  0  0
  2  5  1  0  0  0  0
  2  7  1  0  0  0  0
  2 27  1  1  0  0  0
  3  8  1  0  0  0  0
  3  4  2  0  0  0  0
  5  6  2  0  0  0  0
  5  9  1  0  0  0  0
  7 10  1  0  0  0  0
  7 28  1  0  0  0  0
  7 29  1  0  0  0  0
  8 11  1  0  0  0  0
  8 12  1  0  0  0  0
  8 30  1  6  0  0  0
  9 13  1  0  0  0  0
  9 31  1  0  0  0  0
 10 14  1  0  0  0  0
 10 32  1  0  0  0  0
 10 33  1  0  0  0  0
 11 34  1  0  0  0  0
 11 35  1  0  0  0  0
 11 36  1  0  0  0  0
 12 15  1  0  0  0  0
 12 37  1  0  0  0  0
 12 38  1  0  0  0  0
 13 16  1  0  0  0  0
 13 39  1  0  0  0  0
 13 40  1  0  0  0  0
 14 41  1  0  0  0  0
 14 42  1  0  0  0  0
 15 17  2  0  0  0  0
 15 25  1  0  0  0  0
 16 18  2  0  0  0  0
 16 26  1  0  0  0  0
 17 19  1  0  0  0  0
 17 43  1  0  0  0  0
 18 20  1  0  0  0  0
 18 51  1  0  0  0  0
 19 21  2  0  0  0  0
 19 44  1  0  0  0  0
 20 22  2  0  0  0  0
 20 45  1  0  0  0  0
 21 23  1  0  0  0  0
 21 46  1  0  0  0  0
 22 24  1  0  0  0  0
 22 50  1  0  0  0  0
 23 25  2  0  0  0  0
 23 47  1  0  0  0  0
 24 26  2  0  0  0  0
 24 55  1  0  0  0  0
 25 48  1  0  0  0  0
 26 49  1  0  0  0  0
 51 52  1  0  0  0  0
 51 53  1  0  0  0  0
 51 54  1  0  0  0  0
 55 56  1  0  0  0  0
 55 57  1  0  0  0  0
 55 58  1  0  0  0  0
M  CHG  1  11   1
M  END
$$$$
