p38a_2n
 OpenBabel02232411163D
Structure written by MMmdl.
 53 56  0  0  0  0  0  0  0  0999 V2000
   36.4550   36.2470   15.5280 C   0  0  0  0  0  0  0  0  0  0  0  0
   34.6490   34.7440   20.8730 C   0  0  0  0  0  0  0  0  0  0  0  0
   35.8590   35.6600   16.6390 C   0  0  0  0  0  0  0  0  0  0  0  0
   33.6190   38.6660   23.5140 C   0  0  0  0  0  0  0  0  0  0  0  0
   34.6950   37.6020   21.2110 C   0  0  0  0  0  0  0  0  0  0  0  0
   35.3090   37.0210   20.0480 C   0  0  0  0  0  0  0  0  0  0  0  0
   37.7430   36.7640   15.7100 C   0  0  0  0  0  0  0  0  0  0  0  0
   38.4310   36.7120   16.9250 C   0  0  0  0  0  0  0  0  0  0  0  0
   37.7930   36.1590   18.0400 C   0  0  0  0  0  0  0  0  0  0  0  0
   34.1280   36.7650   22.2180 C   0  0  0  0  0  0  0  0  0  0  0  0
   34.6530   39.0060   21.4370 C   0  0  0  0  0  0  0  0  0  0  0  0
   35.3010   35.6760   19.9150 C   0  0  0  0  0  0  0  0  0  0  0  0
   36.5110   35.6250   17.8870 C   0  0  0  0  0  0  0  0  0  0  0  0
   34.6560   35.1080   16.5480 F   0  0  0  0  0  0  0  0  0  0  0  0
   35.8660   34.9080   18.9010 O   0  0  0  0  0  0  0  0  0  0  0  0
   34.1410   39.5500   22.5500 N   0  0  0  0  0  0  0  0  0  0  0  0
   34.5590   33.5440   20.7140 O   0  0  0  0  0  0  0  0  0  0  0  0
   34.1210   35.3650   22.0560 N   0  0  0  0  0  0  0  0  0  0  0  0
   33.6000   37.2920   23.3690 N   0  0  0  0  0  0  0  0  0  0  0  0
   33.0420   39.2280   24.6330 N   0  0  0  0  0  0  0  0  0  0  0  0
   35.9360   36.3200   14.5710 H   0  0  0  0  0  0  0  0  0  0  0  0
   35.7730   37.6910   19.3210 H   0  0  0  0  0  0  0  0  0  0  0  0
   39.4370   37.1250   17.0270 H   0  0  0  0  0  0  0  0  0  0  0  0
   38.2900   36.1740   19.0130 H   0  0  0  0  0  0  0  0  0  0  0  0
   35.0580   39.7010   20.6810 H   0  0  0  0  0  0  0  0  0  0  0  0
   33.1990   40.2390   24.8220 H   0  0  0  0  0  0  0  0  0  0  0  0
   38.3210   37.3650   14.6740 F   0  0  0  0  0  0  0  0  0  0  0  0
   31.1310   38.3540   27.8210 C   0  0  0  0  0  0  0  0  0  0  0  0
   31.4900   39.1180   26.5410 C   0  0  0  0  0  0  0  0  0  0  0  0
   32.6480   38.4020   25.8160 C   0  0  0  0  0  0  0  0  0  0  0  0
   33.8440   38.2160   26.7770 C   0  0  0  0  0  0  0  0  0  0  0  0
   33.3800   37.5080   28.0560 C   0  0  0  0  0  0  0  0  0  0  0  0
   32.2800   38.2040   28.6860 O   0  0  0  0  0  0  0  0  0  0  0  0
   30.7190   37.3470   27.5820 H   0  0  0  0  0  0  0  0  0  0  0  0
   30.4290   38.9340   28.4620 H   0  0  0  0  0  0  0  0  0  0  0  0
   31.7970   40.1610   26.7940 H   0  0  0  0  0  0  0  0  0  0  0  0
   30.5990   39.1650   25.8700 H   0  0  0  0  0  0  0  0  0  0  0  0
   32.2960   37.3950   25.4540 H   0  0  0  0  0  0  0  0  0  0  0  0
   34.6320   37.5940   26.2860 H   0  0  0  0  0  0  0  0  0  0  0  0
   34.2890   39.2080   27.0280 H   0  0  0  0  0  0  0  0  0  0  0  0
   33.0670   36.4600   27.8380 H   0  0  0  0  0  0  0  0  0  0  0  0
   34.1670   37.5420   28.8440 H   0  0  0  0  0  0  0  0  0  0  0  0
   33.5350   34.4790   23.1190 C   0  0  0  0  0  0  0  0  0  0  0  0
   34.1300   33.5250   23.1320 H   0  0  0  0  0  0  0  0  0  0  0  0
   33.6550   34.9850   24.1200 H   0  0  0  0  0  0  0  0  0  0  0  0
   32.0460   34.1770   22.8950 C   0  0  0  0  0  0  0  0  0  0  0  0
   31.7020   33.5410   23.7540 H   0  0  0  0  0  0  0  0  0  0  0  0
   31.4580   35.1260   22.9350 H   0  0  0  0  0  0  0  0  0  0  0  0
   31.7700   33.4400   21.5830 C   0  0  0  0  0  0  0  0  0  0  0  0
   31.6630   34.1420   20.7310 H   0  0  0  0  0  0  0  0  0  0  0  0
   32.5380   32.6600   21.3800 H   0  0  0  0  0  0  0  0  0  0  0  0
   30.5120   32.7370   21.7340 O   0  0  0  0  0  0  0  0  0  0  0  0
   30.1020   32.6920   20.7880 H   0  0  0  0  0  0  0  0  0  0  0  0
  1  3  2  0  0  0  0
  1  7  1  0  0  0  0
  1 21  1  0  0  0  0
  2 12  1  0  0  0  0
  2 17  2  0  0  0  0
  2 18  1  0  0  0  0
  3 13  1  0  0  0  0
  3 14  1  0  0  0  0
  4 16  2  0  0  0  0
  4 19  1  0  0  0  0
  4 20  1  0  0  0  0
  5  6  1  0  0  0  0
  5 10  1  0  0  0  0
  5 11  2  0  0  0  0
  6 12  2  0  0  0  0
  6 22  1  0  0  0  0
  7  8  2  0  0  0  0
  7 27  1  0  0  0  0
  8  9  1  0  0  0  0
  8 23  1  0  0  0  0
  9 13  2  0  0  0  0
  9 24  1  0  0  0  0
 10 18  1  0  0  0  0
 10 19  2  0  0  0  0
 11 16  1  0  0  0  0
 11 25  1  0  0  0  0
 12 15  1  0  0  0  0
 13 15  1  0  0  0  0
 18 43  1  0  0  0  0
 20 26  1  0  0  0  0
 20 30  1  0  0  0  0
 28 29  1  0  0  0  0
 28 33  1  0  0  0  0
 28 34  1  0  0  0  0
 28 35  1  0  0  0  0
 29 30  1  0  0  0  0
 29 36  1  0  0  0  0
 29 37  1  0  0  0  0
 30 31  1  0  0  0  0
 30 38  1  0  0  0  0
 31 32  1  0  0  0  0
 31 39  1  0  0  0  0
 31 40  1  0  0  0  0
 32 33  1  0  0  0  0
 32 41  1  0  0  0  0
 32 42  1  0  0  0  0
 43 44  1  0  0  0  0
 43 45  1  0  0  0  0
 43 46  1  0  0  0  0
 46 47  1  0  0  0  0
 46 48  1  0  0  0  0
 46 49  1  0  0  0  0
 49 50  1  0  0  0  0
 49 51  1  0  0  0  0
 49 52  1  0  0  0  0
 52 53  1  0  0  0  0
M  END
$$$$
