p38a_3flw
 OpenBabel02232411163D
Structure written by MMmdl.
 49 51  0  0  0  0  0  0  0  0999 V2000
   38.3320   36.5990   17.0510 C   0  0  0  0  0  0  0  0  0  0  0  0
   37.6970   36.7730   15.8140 C   0  0  0  0  0  0  0  0  0  0  0  0
   31.9480   38.2720   25.8010 C   0  0  0  0  0  0  0  0  0  0  0  0
   31.1160   38.8160   24.6330 C   0  0  0  0  0  0  0  0  0  0  0  0
   34.3280   38.0360   26.7310 C   0  0  0  0  0  0  0  0  0  0  0  0
   33.9090   34.9030   23.4790 C   0  0  0  0  0  0  0  0  0  0  0  0
   38.0600   35.9610   19.3000 F   0  0  0  0  0  0  0  0  0  0  0  0
   37.5440   36.1020   18.0850 C   0  0  0  0  0  0  0  0  0  0  0  0
   38.3950   37.3110   14.8170 F   0  0  0  0  0  0  0  0  0  0  0  0
   36.3570   36.4520   15.5820 C   0  0  0  0  0  0  0  0  0  0  0  0
   35.5920   35.9360   16.6320 C   0  0  0  0  0  0  0  0  0  0  0  0
   36.1920   35.7520   17.8810 C   0  0  0  0  0  0  0  0  0  0  0  0
   35.4620   35.0990   18.8820 O   0  0  0  0  0  0  0  0  0  0  0  0
   35.0960   35.8960   19.9660 C   0  0  0  0  0  0  0  0  0  0  0  0
   35.1300   37.2470   20.0350 C   0  0  0  0  0  0  0  0  0  0  0  0
   34.7660   37.8850   21.2690 C   0  0  0  0  0  0  0  0  0  0  0  0
   34.7510   39.2970   21.4410 C   0  0  0  0  0  0  0  0  0  0  0  0
   34.4510   39.8880   22.6030 N   0  0  0  0  0  0  0  0  0  0  0  0
   34.6200   35.0120   21.0610 C   0  0  0  0  0  0  0  0  0  0  0  0
   34.4680   33.8110   20.9800 O   0  0  0  0  0  0  0  0  0  0  0  0
   34.3320   35.6960   22.2920 N   0  0  0  0  0  0  0  0  0  0  0  0
   34.4100   37.0960   22.4010 C   0  0  0  0  0  0  0  0  0  0  0  0
   34.1180   37.6690   23.6120 N   0  0  0  0  0  0  0  0  0  0  0  0
   34.1400   39.0470   23.6950 C   0  0  0  0  0  0  0  0  0  0  0  0
   33.9180   39.6650   24.9090 N   0  0  0  0  0  0  0  0  0  0  0  0
   33.2910   38.9870   26.0870 C   0  0  0  0  0  0  0  0  0  0  0  0
   33.8460   37.4750   28.0750 C   0  0  0  0  0  0  0  0  0  0  0  0
   34.9280   36.8560   28.7980 O   0  0  0  0  0  0  0  0  0  0  0  0
   31.1540   40.2480   24.5590 O   0  0  0  0  0  0  0  0  0  0  0  0
   39.3770   36.8760   17.2070 H   0  0  0  0  0  0  0  0  0  0  0  0
   31.3420   38.3240   26.7390 H   0  0  0  0  0  0  0  0  0  0  0  0
   32.1450   37.1890   25.5850 H   0  0  0  0  0  0  0  0  0  0  0  0
   31.5520   38.5150   23.6530 H   0  0  0  0  0  0  0  0  0  0  0  0
   30.0620   38.4740   24.7240 H   0  0  0  0  0  0  0  0  0  0  0  0
   34.5410   37.1860   26.0380 H   0  0  0  0  0  0  0  0  0  0  0  0
   35.2780   38.6040   26.8900 H   0  0  0  0  0  0  0  0  0  0  0  0
   34.6020   35.0960   24.3420 H   0  0  0  0  0  0  0  0  0  0  0  0
   32.8710   35.2040   23.7890 H   0  0  0  0  0  0  0  0  0  0  0  0
   33.9170   33.8090   23.2390 H   0  0  0  0  0  0  0  0  0  0  0  0
   35.8950   36.6160   14.6070 H   0  0  0  0  0  0  0  0  0  0  0  0
   34.5350   35.6970   16.4720 H   0  0  0  0  0  0  0  0  0  0  0  0
   35.4340   37.8770   19.1980 H   0  0  0  0  0  0  0  0  0  0  0  0
   34.9820   39.9540   20.5850 H   0  0  0  0  0  0  0  0  0  0  0  0
   33.7270   40.6910   24.8980 H   0  0  0  0  0  0  0  0  0  0  0  0
   33.0800   39.8310   26.8090 H   0  0  0  0  0  0  0  0  0  0  0  0
   33.5120   38.2840   28.7650 H   0  0  0  0  0  0  0  0  0  0  0  0
   33.0450   36.7130   27.9290 H   0  0  0  0  0  0  0  0  0  0  0  0
   35.3650   36.1720   28.2160 H   0  0  0  0  0  0  0  0  0  0  0  0
   30.3970   40.6410   25.0710 H   0  0  0  0  0  0  0  0  0  0  0  0
  1  2  2  0  0  0  0
  1  8  1  0  0  0  0
  1 30  1  0  0  0  0
  2  9  1  0  0  0  0
  2 10  1  0  0  0  0
  3  4  1  0  0  0  0
  3 26  1  0  0  0  0
  3 31  1  0  0  0  0
  3 32  1  0  0  0  0
  4 29  1  0  0  0  0
  4 33  1  0  0  0  0
  4 34  1  0  0  0  0
  5 26  1  0  0  0  0
  5 27  1  0  0  0  0
  5 35  1  0  0  0  0
  5 36  1  0  0  0  0
  6 21  1  0  0  0  0
  6 37  1  0  0  0  0
  6 38  1  0  0  0  0
  6 39  1  0  0  0  0
  7  8  1  0  0  0  0
  8 12  2  0  0  0  0
 10 11  2  0  0  0  0
 10 40  1  0  0  0  0
 11 12  1  0  0  0  0
 11 41  1  0  0  0  0
 12 13  1  0  0  0  0
 13 14  1  0  0  0  0
 14 15  2  0  0  0  0
 14 19  1  0  0  0  0
 15 16  1  0  0  0  0
 15 42  1  0  0  0  0
 16 17  2  0  0  0  0
 16 22  1  0  0  0  0
 17 18  1  0  0  0  0
 17 43  1  0  0  0  0
 18 24  2  0  0  0  0
 19 20  2  0  0  0  0
 19 21  1  0  0  0  0
 21 22  1  0  0  0  0
 22 23  2  0  0  0  0
 23 24  1  0  0  0  0
 24 25  1  0  0  0  0
 25 26  1  0  0  0  0
 25 44  1  0  0  0  0
 26 45  1  0  0  0  0
 27 28  1  0  0  0  0
 27 46  1  0  0  0  0
 27 47  1  0  0  0  0
 28 48  1  0  0  0  0
 29 49  1  0  0  0  0
M  END
$$$$
