p38a_2bb
 OpenBabel02232411163D
Structure written by MMmdl.
 44 46  0  0  0  0  0  0  0  0999 V2000
   36.2770   35.8040   16.1170 C   0  0  0  0  0  0  0  0  0  0  0  0
   34.5730   35.1040   21.8050 C   0  0  0  0  0  0  0  0  0  0  0  0
   35.5220   35.4400   17.2280 C   0  0  0  0  0  0  0  0  0  0  0  0
   34.4510   39.2620   24.2680 C   0  0  0  0  0  0  0  0  0  0  0  0
   34.1740   39.2580   26.7720 C   0  0  0  0  0  0  0  0  0  0  0  0
   34.7860   37.9670   21.8580 C   0  0  0  0  0  0  0  0  0  0  0  0
   35.0450   37.2670   20.6300 C   0  0  0  0  0  0  0  0  0  0  0  0
   37.5690   36.2830   16.3690 C   0  0  0  0  0  0  0  0  0  0  0  0
   38.1260   36.3600   17.6480 C   0  0  0  0  0  0  0  0  0  0  0  0
   37.3400   36.0080   18.7510 C   0  0  0  0  0  0  0  0  0  0  0  0
   34.5680   37.2410   23.0690 C   0  0  0  0  0  0  0  0  0  0  0  0
   34.7380   39.3830   21.9410 C   0  0  0  0  0  0  0  0  0  0  0  0
   34.9810   35.9160   20.6270 C   0  0  0  0  0  0  0  0  0  0  0  0
   36.0350   35.5530   18.5380 C   0  0  0  0  0  0  0  0  0  0  0  0
   34.2910   35.0990   24.3170 C   0  0  0  0  0  0  0  0  0  0  0  0
   34.2970   34.9530   17.0790 F   0  0  0  0  0  0  0  0  0  0  0  0
   35.1930   35.0640   19.5430 O   0  0  0  0  0  0  0  0  0  0  0  0
   34.5600   40.0380   23.0980 N   0  0  0  0  0  0  0  0  0  0  0  0
   34.3110   33.9220   21.7900 O   0  0  0  0  0  0  0  0  0  0  0  0
   34.4860   35.8420   23.0410 N   0  0  0  0  0  0  0  0  0  0  0  0
   34.4070   37.8820   24.2760 N   0  0  0  0  0  0  0  0  0  0  0  0
   34.4380   39.9460   25.4660 N   0  0  0  0  0  0  0  0  0  0  0  0
   35.8760   35.7520   15.1010 H   0  0  0  0  0  0  0  0  0  0  0  0
   34.8110   38.3320   26.8160 H   0  0  0  0  0  0  0  0  0  0  0  0
   35.3000   37.8570   19.7440 H   0  0  0  0  0  0  0  0  0  0  0  0
   39.1500   36.7210   17.7870 H   0  0  0  0  0  0  0  0  0  0  0  0
   37.7430   36.1120   19.7600 H   0  0  0  0  0  0  0  0  0  0  0  0
   34.8390   39.9940   21.0270 H   0  0  0  0  0  0  0  0  0  0  0  0
   35.1080   35.3660   25.0430 H   0  0  0  0  0  0  0  0  0  0  0  0
   33.3030   35.3730   24.7770 H   0  0  0  0  0  0  0  0  0  0  0  0
   34.3170   33.9930   24.1300 H   0  0  0  0  0  0  0  0  0  0  0  0
   34.2260   40.9640   25.4570 H   0  0  0  0  0  0  0  0  0  0  0  0
   38.2910   36.7130   15.3360 F   0  0  0  0  0  0  0  0  0  0  0  0
   34.5420   40.2220   27.9020 C   0  0  0  0  0  0  0  0  0  0  0  0
   33.0850   38.9830   26.8290 H   0  0  0  0  0  0  0  0  0  0  0  0
   35.6200   40.5290   27.7910 H   0  0  0  0  0  0  0  0  0  0  0  0
   33.9570   41.1800   27.7800 H   0  0  0  0  0  0  0  0  0  0  0  0
   34.4320   41.0320   30.5210 C   0  0  0  0  0  0  0  0  0  0  0  0
   34.2790   39.6070   29.5380 S   0  0  0  0  0  0  0  0  0  0  0  0
   32.9270   39.0160   29.6850 O   0  0  0  0  0  0  0  0  0  0  0  0
   35.3170   38.6170   29.9090 O   0  0  0  0  0  0  0  0  0  0  0  0
   35.4010   41.5660   30.3300 H   0  0  0  0  0  0  0  0  0  0  0  0
   33.6240   41.7820   30.3100 H   0  0  0  0  0  0  0  0  0  0  0  0
   34.3930   40.8130   31.6170 H   0  0  0  0  0  0  0  0  0  0  0  0
  1  3  2  0  0  0  0
  1  8  1  0  0  0  0
  1 23  1  0  0  0  0
  2 13  1  0  0  0  0
  2 19  2  0  0  0  0
  2 20  1  0  0  0  0
  3 14  1  0  0  0  0
  3 16  1  0  0  0  0
  4 18  2  0  0  0  0
  4 21  1  0  0  0  0
  4 22  1  0  0  0  0
  5 22  1  0  0  0  0
  5 24  1  0  0  0  0
  5 34  1  0  0  0  0
  5 35  1  0  0  0  0
  6  7  1  0  0  0  0
  6 11  1  0  0  0  0
  6 12  2  0  0  0  0
  7 13  2  0  0  0  0
  7 25  1  0  0  0  0
  8  9  2  0  0  0  0
  8 33  1  0  0  0  0
  9 10  1  0  0  0  0
  9 26  1  0  0  0  0
 10 14  2  0  0  0  0
 10 27  1  0  0  0  0
 11 20  1  0  0  0  0
 11 21  2  0  0  0  0
 12 18  1  0  0  0  0
 12 28  1  0  0  0  0
 13 17  1  0  0  0  0
 14 17  1  0  0  0  0
 15 20  1  0  0  0  0
 15 29  1  0  0  0  0
 15 30  1  0  0  0  0
 15 31  1  0  0  0  0
 22 32  1  0  0  0  0
 34 36  1  0  0  0  0
 34 37  1  0  0  0  0
 34 39  1  0  0  0  0
 38 39  1  0  0  0  0
 38 42  1  0  0  0  0
 38 43  1  0  0  0  0
 38 44  1  0  0  0  0
 39 40  2  0  0  0  0
 39 41  2  0  0  0  0
M  END
$$$$
