p38a_2u
 OpenBabel02232411163D
Structure written by MMmdl.
 64 68  0  0  0  0  0  0  0  0999 V2000
   38.2160   36.4870   17.2450 C   0  0  0  0  0  0  0  0  0  0  0  0
   34.5320   35.2040   21.4340 C   0  0  0  0  0  0  0  0  0  0  0  0
   37.4450   36.0710   18.3280 C   0  0  0  0  0  0  0  0  0  0  0  0
   34.0990   39.3590   23.8730 C   0  0  0  0  0  0  0  0  0  0  0  0
   34.6610   38.0810   21.4940 C   0  0  0  0  0  0  0  0  0  0  0  0
   35.0280   37.3880   20.2900 C   0  0  0  0  0  0  0  0  0  0  0  0
   37.5480   36.6200   16.0190 C   0  0  0  0  0  0  0  0  0  0  0  0
   36.1910   36.3360   15.8470 C   0  0  0  0  0  0  0  0  0  0  0  0
   35.4410   35.9140   16.9500 C   0  0  0  0  0  0  0  0  0  0  0  0
   34.3230   37.3430   22.6670 C   0  0  0  0  0  0  0  0  0  0  0  0
   34.6330   39.4990   21.5950 C   0  0  0  0  0  0  0  0  0  0  0  0
   35.0050   36.0360   20.2900 C   0  0  0  0  0  0  0  0  0  0  0  0
   36.0730   35.7740   18.1890 C   0  0  0  0  0  0  0  0  0  0  0  0
   38.0030   35.9520   19.5250 F   0  0  0  0  0  0  0  0  0  0  0  0
   35.3610   35.1860   19.2440 O   0  0  0  0  0  0  0  0  0  0  0  0
   34.3660   40.1500   22.7370 N   0  0  0  0  0  0  0  0  0  0  0  0
   34.3850   34.0020   21.3890 O   0  0  0  0  0  0  0  0  0  0  0  0
   34.2400   35.9350   22.6380 N   0  0  0  0  0  0  0  0  0  0  0  0
   34.0650   37.9780   23.8530 N   0  0  0  0  0  0  0  0  0  0  0  0
   33.7930   40.0000   25.0500 N   0  0  0  0  0  0  0  0  0  0  0  0
   39.2770   36.7310   17.3520 H   0  0  0  0  0  0  0  0  0  0  0  0
   35.3250   37.9800   19.4210 H   0  0  0  0  0  0  0  0  0  0  0  0
   35.7070   36.4510   14.8740 H   0  0  0  0  0  0  0  0  0  0  0  0
   34.3710   35.7110   16.8370 H   0  0  0  0  0  0  0  0  0  0  0  0
   34.8310   40.1110   20.7000 H   0  0  0  0  0  0  0  0  0  0  0  0
   33.9170   41.0270   25.1280 H   0  0  0  0  0  0  0  0  0  0  0  0
   38.2380   37.0770   14.9760 F   0  0  0  0  0  0  0  0  0  0  0  0
   32.6050   39.3760   28.6290 C   0  0  0  0  0  0  0  0  0  0  0  0
   32.6840   40.0460   27.2520 C   0  0  0  0  0  0  0  0  0  0  0  0
   33.6550   39.2620   26.3450 C   0  0  0  0  0  0  0  0  0  0  0  0
   35.0280   39.1090   27.0340 C   0  0  0  0  0  0  0  0  0  0  0  0
   34.8430   38.4840   28.4230 C   0  0  0  0  0  0  0  0  0  0  0  0
   33.9110   39.2370   29.2320 O   0  0  0  0  0  0  0  0  0  0  0  0
   32.1300   38.3700   28.5560 H   0  0  0  0  0  0  0  0  0  0  0  0
   32.0770   40.0300   29.3610 H   0  0  0  0  0  0  0  0  0  0  0  0
   33.0390   41.0970   27.3730 H   0  0  0  0  0  0  0  0  0  0  0  0
   31.6720   40.0700   26.7830 H   0  0  0  0  0  0  0  0  0  0  0  0
   33.2230   38.2420   26.1350 H   0  0  0  0  0  0  0  0  0  0  0  0
   35.6870   38.4490   26.4220 H   0  0  0  0  0  0  0  0  0  0  0  0
   35.5160   40.1080   27.1290 H   0  0  0  0  0  0  0  0  0  0  0  0
   34.4820   37.4330   28.3400 H   0  0  0  0  0  0  0  0  0  0  0  0
   35.7810   38.5490   29.0210 H   0  0  0  0  0  0  0  0  0  0  0  0
   34.2320   33.0430   25.1680 C   0  0  0  0  0  0  0  0  0  0  0  0
   34.8520   34.2440   24.4110 C   0  0  0  0  0  0  0  0  0  0  0  0
   33.7730   35.2080   23.8830 C   0  0  0  0  0  0  0  0  0  0  0  0
   32.4480   34.4740   23.6160 C   0  0  0  0  0  0  0  0  0  0  0  0
   31.8910   33.9440   24.9530 C   0  0  0  0  0  0  0  0  0  0  0  0
   34.9910   32.7230   25.9290 H   0  0  0  0  0  0  0  0  0  0  0  0
   34.0590   32.2060   24.4420 H   0  0  0  0  0  0  0  0  0  0  0  0
   35.4740   33.8310   23.5850 H   0  0  0  0  0  0  0  0  0  0  0  0
   35.5180   34.8100   25.1080 H   0  0  0  0  0  0  0  0  0  0  0  0
   33.5850   35.9810   24.6890 H   0  0  0  0  0  0  0  0  0  0  0  0
   31.6960   35.1730   23.1760 H   0  0  0  0  0  0  0  0  0  0  0  0
   32.6080   33.6320   22.9010 H   0  0  0  0  0  0  0  0  0  0  0  0
   31.4130   34.8000   25.5070 H   0  0  0  0  0  0  0  0  0  0  0  0
   31.1220   33.1630   24.7160 H   0  0  0  0  0  0  0  0  0  0  0  0
   32.9610   33.4070   25.8580 N   0  0  0  0  0  0  0  0  0  0  0  0
   32.4000   32.4970   27.2120 S   0  0  0  0  0  0  0  0  0  0  0  0
   31.3660   31.5430   26.7610 O   0  0  0  0  0  0  0  0  0  0  0  0
   31.8550   33.4560   28.1930 O   0  0  0  0  0  0  0  0  0  0  0  0
   33.7610   31.6570   27.8800 C   0  0  0  0  0  0  0  0  0  0  0  0
   34.5870   32.3500   28.1920 H   0  0  0  0  0  0  0  0  0  0  0  0
   33.4690   31.0980   28.8140 H   0  0  0  0  0  0  0  0  0  0  0  0
   34.1850   30.8830   27.1880 H   0  0  0  0  0  0  0  0  0  0  0  0
  1  3  2  0  0  0  0
  1  7  1  0  0  0  0
  1 21  1  0  0  0  0
  2 12  1  0  0  0  0
  2 17  2  0  0  0  0
  2 18  1  0  0  0  0
  3 13  1  0  0  0  0
  3 14  1  0  0  0  0
  4 16  2  0  0  0  0
  4 19  1  0  0  0  0
  4 20  1  0  0  0  0
  5  6  1  0  0  0  0
  5 10  1  0  0  0  0
  5 11  2  0  0  0  0
  6 12  2  0  0  0  0
  6 22  1  0  0  0  0
  7  8  2  0  0  0  0
  7 27  1  0  0  0  0
  8  9  1  0  0  0  0
  8 23  1  0  0  0  0
  9 13  2  0  0  0  0
  9 24  1  0  0  0  0
 10 18  1  0  0  0  0
 10 19  2  0  0  0  0
 11 16  1  0  0  0  0
 11 25  1  0  0  0  0
 12 15  1  0  0  0  0
 13 15  1  0  0  0  0
 18 45  1  0  0  0  0
 20 26  1  0  0  0  0
 20 30  1  0  0  0  0
 28 29  1  0  0  0  0
 28 33  1  0  0  0  0
 28 34  1  0  0  0  0
 28 35  1  0  0  0  0
 29 30  1  0  0  0  0
 29 36  1  0  0  0  0
 29 37  1  0  0  0  0
 30 31  1  0  0  0  0
 30 38  1  0  0  0  0
 31 32  1  0  0  0  0
 31 39  1  0  0  0  0
 31 40  1  0  0  0  0
 32 33  1  0  0  0  0
 32 41  1  0  0  0  0
 32 42  1  0  0  0  0
 43 44  1  0  0  0  0
 43 48  1  0  0  0  0
 43 49  1  0  0  0  0
 43 57  1  0  0  0  0
 44 45  1  0  0  0  0
 44 50  1  0  0  0  0
 44 51  1  0  0  0  0
 45 46  1  0  0  0  0
 45 52  1  0  0  0  0
 46 47  1  0  0  0  0
 46 53  1  0  0  0  0
 46 54  1  0  0  0  0
 47 55  1  0  0  0  0
 47 56  1  0  0  0  0
 47 57  1  0  0  0  0
 57 58  1  0  0  0  0
 58 59  2  0  0  0  0
 58 60  2  0  0  0  0
 58 61  1  0  0  0  0
 61 62  1  0  0  0  0
 61 63  1  0  0  0  0
 61 64  1  0  0  0  0
M  END
$$$$
