p38a_2aa
 OpenBabel02232411163D
Structure written by MMmdl.
 43 45  0  0  0  0  0  0  0  0999 V2000
   38.2830   36.5600   17.1010 C   0  0  0  0  0  0  0  0  0  0  0  0
   34.5960   35.0410   21.0960 C   0  0  0  0  0  0  0  0  0  0  0  0
   37.4640   36.0850   18.1220 C   0  0  0  0  0  0  0  0  0  0  0  0
   34.0430   39.0640   23.7210 C   0  0  0  0  0  0  0  0  0  0  0  0
   33.4820   38.8750   26.1620 C   0  0  0  0  0  0  0  0  0  0  0  0
   34.6370   37.9200   21.2890 C   0  0  0  0  0  0  0  0  0  0  0  0
   34.9850   37.2900   20.0440 C   0  0  0  0  0  0  0  0  0  0  0  0
   37.6710   36.7580   15.8550 C   0  0  0  0  0  0  0  0  0  0  0  0
   36.3250   36.4830   15.6030 C   0  0  0  0  0  0  0  0  0  0  0  0
   35.5270   35.9910   16.6410 C   0  0  0  0  0  0  0  0  0  0  0  0
   34.3570   37.1200   22.4360 C   0  0  0  0  0  0  0  0  0  0  0  0
   34.5780   39.3300   21.4550 C   0  0  0  0  0  0  0  0  0  0  0  0
   34.9970   35.9380   19.9800 C   0  0  0  0  0  0  0  0  0  0  0  0
   36.1030   35.7860   17.8980 C   0  0  0  0  0  0  0  0  0  0  0  0
   34.0730   34.9160   23.5650 C   0  0  0  0  0  0  0  0  0  0  0  0
   37.9580   35.9150   19.3420 F   0  0  0  0  0  0  0  0  0  0  0  0
   35.3400   35.1480   18.8850 O   0  0  0  0  0  0  0  0  0  0  0  0
   34.2970   39.9160   22.6300 N   0  0  0  0  0  0  0  0  0  0  0  0
   34.4720   33.8390   21.0240 O   0  0  0  0  0  0  0  0  0  0  0  0
   34.3500   35.7200   22.3410 N   0  0  0  0  0  0  0  0  0  0  0  0
   34.0820   37.6850   23.6570 N   0  0  0  0  0  0  0  0  0  0  0  0
   33.6990   39.6570   24.9150 N   0  0  0  0  0  0  0  0  0  0  0  0
   39.3350   36.8040   17.2720 H   0  0  0  0  0  0  0  0  0  0  0  0
   34.7940   38.8560   26.9920 C   0  0  0  0  0  0  0  0  0  0  0  0
   35.2410   37.9280   19.1970 H   0  0  0  0  0  0  0  0  0  0  0  0
   35.8840   36.6640   14.6220 H   0  0  0  0  0  0  0  0  0  0  0  0
   34.4660   35.7870   16.4650 H   0  0  0  0  0  0  0  0  0  0  0  0
   34.7630   39.9950   20.5950 H   0  0  0  0  0  0  0  0  0  0  0  0
   34.8330   35.1540   24.3570 H   0  0  0  0  0  0  0  0  0  0  0  0
   33.0530   35.1670   23.9670 H   0  0  0  0  0  0  0  0  0  0  0  0
   34.1150   33.8210   23.3300 H   0  0  0  0  0  0  0  0  0  0  0  0
   33.7170   40.6860   25.0070 H   0  0  0  0  0  0  0  0  0  0  0  0
   38.4010   37.2750   14.8710 F   0  0  0  0  0  0  0  0  0  0  0  0
   32.3030   39.4970   26.9500 C   0  0  0  0  0  0  0  0  0  0  0  0
   32.6870   40.6970   27.6320 O   0  0  0  0  0  0  0  0  0  0  0  0
   32.8710   41.4070   26.9410 H   0  0  0  0  0  0  0  0  0  0  0  0
   31.4450   39.7150   26.2720 H   0  0  0  0  0  0  0  0  0  0  0  0
   32.0090   38.8140   27.7840 H   0  0  0  0  0  0  0  0  0  0  0  0
   34.6910   37.9150   28.0670 O   0  0  0  0  0  0  0  0  0  0  0  0
   35.6610   38.5920   26.3450 H   0  0  0  0  0  0  0  0  0  0  0  0
   34.9440   39.8300   27.5180 H   0  0  0  0  0  0  0  0  0  0  0  0
   34.6660   36.9930   27.6980 H   0  0  0  0  0  0  0  0  0  0  0  0
   33.1890   37.8160   25.8970 H   0  0  0  0  0  0  0  0  0  0  0  0
  1  3  2  0  0  0  0
  1  8  1  0  0  0  0
  1 23  1  0  0  0  0
  2 13  1  0  0  0  0
  2 19  2  0  0  0  0
  2 20  1  0  0  0  0
  3 14  1  0  0  0  0
  3 16  1  0  0  0  0
  4 18  2  0  0  0  0
  4 21  1  0  0  0  0
  4 22  1  0  0  0  0
  5 22  1  0  0  0  0
  5 24  1  0  0  0  0
  5 34  1  0  0  0  0
  5 43  1  0  0  0  0
  6  7  1  0  0  0  0
  6 11  1  0  0  0  0
  6 12  2  0  0  0  0
  7 13  2  0  0  0  0
  7 25  1  0  0  0  0
  8  9  2  0  0  0  0
  8 33  1  0  0  0  0
  9 10  1  0  0  0  0
  9 26  1  0  0  0  0
 10 14  2  0  0  0  0
 10 27  1  0  0  0  0
 11 20  1  0  0  0  0
 11 21  2  0  0  0  0
 12 18  1  0  0  0  0
 12 28  1  0  0  0  0
 13 17  1  0  0  0  0
 14 17  1  0  0  0  0
 15 20  1  0  0  0  0
 15 29  1  0  0  0  0
 15 30  1  0  0  0  0
 15 31  1  0  0  0  0
 22 32  1  0  0  0  0
 24 39  1  0  0  0  0
 24 40  1  0  0  0  0
 24 41  1  0  0  0  0
 34 35  1  0  0  0  0
 34 37  1  0  0  0  0
 34 38  1  0  0  0  0
 35 36  1  0  0  0  0
 39 42  1  0  0  0  0
M  END
$$$$
