33
 OpenBabel02232411163D
Structure written by MMmdl.
 38 40  0  0  0  0  0  0  0  0999 V2000
    3.7930  -50.2080    6.0290 O   0  0  0  0  0  0  0  0  0  0  0  0
    3.0770  -49.3250    6.5400 C   0  0  0  0  0  0  0  0  0  0  0  0
    3.4620  -48.3130    7.1390 O   0  5  0  0  0  0  0  0  0  0  0  0
    1.5600  -49.5650    6.4070 C   0  0  0  0  0  0  0  0  0  0  0  0
   -0.3590  -50.8080    6.5360 C   0  0  0  0  0  0  0  0  0  0  0  0
   -1.3310  -51.7990    6.7580 C   0  0  0  0  0  0  0  0  0  0  0  0
   -2.6410  -51.4960    6.4170 C   0  0  0  0  0  0  0  0  0  0  0  0
   -2.9840  -50.2400    5.8620 C   0  0  0  0  0  0  0  0  0  0  0  0
   -2.0280  -49.2570    5.6430 C   0  0  0  0  0  0  0  0  0  0  0  0
   -0.6900  -49.5180    5.9830 C   0  0  0  0  0  0  0  0  0  0  0  0
    0.5380  -48.7530    5.9280 C   0  0  0  0  0  0  0  0  0  0  0  0
    0.6130  -47.3450    5.4550 C   0  0  0  0  0  0  0  0  0  0  0  0
    0.5630  -46.3280    6.6100 C   0  0  0  0  0  0  0  0  0  0  0  0
   -0.7480  -46.3610    7.3890 C   0  0  0  0  0  0  0  0  0  0  0  0
   -1.7310  -45.7830    6.4500 O   0  0  0  0  0  0  0  0  0  0  0  0
   -2.9930  -45.5560    6.9040 C   0  0  0  0  0  0  0  0  0  0  0  0
   -3.5200  -46.0440    8.1150 C   0  0  0  0  0  0  0  0  0  0  0  0
   -4.8350  -45.7290    8.4580 C   0  0  0  0  0  0  0  0  0  0  0  0
   -5.5900  -44.9320    7.5980 C   0  0  0  0  0  0  0  0  0  0  0  0
   -5.0810  -44.4430    6.3890 C   0  0  0  0  0  0  0  0  0  0  0  0
   -3.7780  -44.7620    6.0310 C   0  0  0  0  0  0  0  0  0  0  0  0
   -1.0750  -52.7670    7.1860 H   0  0  0  0  0  0  0  0  0  0  0  0
   -3.4300  -52.2320    6.5790 H   0  0  0  0  0  0  0  0  0  0  0  0
   -4.0280  -50.0520    5.6080 H   0  0  0  0  0  0  0  0  0  0  0  0
   -2.3220  -48.2960    5.2170 H   0  0  0  0  0  0  0  0  0  0  0  0
   -0.2590  -47.1420    4.7810 H   0  0  0  0  0  0  0  0  0  0  0  0
    1.5540  -47.1700    4.8800 H   0  0  0  0  0  0  0  0  0  0  0  0
    0.6900  -45.3010    6.1940 H   0  0  0  0  0  0  0  0  0  0  0  0
    1.3910  -46.5450    7.3300 H   0  0  0  0  0  0  0  0  0  0  0  0
   -0.7240  -45.6950    8.2770 H   0  0  0  0  0  0  0  0  0  0  0  0
   -1.0900  -47.3930    7.6190 H   0  0  0  0  0  0  0  0  0  0  0  0
   -2.9450  -46.6780    8.7870 H   0  0  0  0  0  0  0  0  0  0  0  0
   -3.3650  -44.4100    5.0880 H   0  0  0  0  0  0  0  0  0  0  0  0
    1.0230  -50.8110    6.7840 N   0  0  0  0  0  0  0  0  0  0  0  0
    1.5190  -51.6090    7.1650 H   0  0  0  0  0  0  0  0  0  0  0  0
   -5.7030  -43.8290    5.7330 H   0  0  0  0  0  0  0  0  0  0  0  0
   -7.2240  -44.5620    8.0290 Cl  0  0  0  0  0  0  0  0  0  0  0  0
   -5.2720  -46.1100    9.3860 H   0  0  0  0  0  0  0  0  0  0  0  0
  1  2  2  0  0  0  0
  2  3  1  0  0  0  0
  2  4  1  0  0  0  0
  4 11  2  0  0  0  0
  4 34  1  0  0  0  0
  5  6  2  0  0  0  0
  5 10  1  0  0  0  0
  5 34  1  0  0  0  0
  6  7  1  0  0  0  0
  6 22  1  0  0  0  0
  7  8  2  0  0  0  0
  7 23  1  0  0  0  0
  8  9  1  0  0  0  0
  8 24  1  0  0  0  0
  9 10  2  0  0  0  0
  9 25  1  0  0  0  0
 10 11  1  0  0  0  0
 11 12  1  0  0  0  0
 12 26  1  0  0  0  0
 12 27  1  0  0  0  0
 12 13  1  0  0  0  0
 13 14  1  0  0  0  0
 13 28  1  0  0  0  0
 13 29  1  0  0  0  0
 14 15  1  0  0  0  0
 14 30  1  0  0  0  0
 14 31  1  0  0  0  0
 15 16  1  0  0  0  0
 16 17  2  0  0  0  0
 16 21  1  0  0  0  0
 17 18  1  0  0  0  0
 17 32  1  0  0  0  0
 18 19  2  0  0  0  0
 18 38  1  0  0  0  0
 19 20  1  0  0  0  0
 19 37  1  0  0  0  0
 20 21  2  0  0  0  0
 20 36  1  0  0  0  0
 21 33  1  0  0  0  0
 34 35  1  0  0  0  0
M  CHG  1   3  -1
M  END
$$$$
