CAT-17g
 OpenBabel02232411143D
Structure written by MMmdl.
 42 45  0  0  1  0  0  0  0  0999 V2000
   11.6280   -2.3300    1.2430 C   0  0  0  0  0  0  0  0  0  0  0  0
   12.9790   -2.3170    0.6440 N   0  0  0  0  0  0  0  0  0  0  0  0
   14.1640   -2.3230    1.3720 C   0  0  0  0  0  0  0  0  0  0  0  0
   14.3040   -2.4340    2.7240 N   0  0  0  0  0  0  0  0  0  0  0  0
   15.2610   -2.2550    0.5010 N   0  3  0  0  0  0  0  0  0  0  0  0
   14.8180   -2.5810   -0.9070 C   0  0  1  0  0  0  0  0  0  0  0  0
   15.4120   -1.5650   -1.8580 C   0  0  0  0  0  0  0  0  0  0  0  0
   16.2900   -1.9510   -2.8780 C   0  0  0  0  0  0  0  0  0  0  0  0
   16.7540   -0.9950   -3.7870 C   0  0  0  0  0  0  0  0  0  0  0  0
   16.3650    0.3420   -3.6740 C   0  0  0  0  0  0  0  0  0  0  0  0
   15.5310    0.7450   -2.6180 C   0  0  0  0  0  0  0  0  0  0  0  0
   15.1330    2.1570   -2.4450 C   0  0  0  0  0  0  0  0  0  0  0  0
   14.5620    2.8900   -3.5080 C   0  0  0  0  0  0  0  0  0  0  0  0
   14.0860    4.1530   -3.3550 N   0  0  0  0  0  0  0  0  0  0  0  0
   14.1730    4.7450   -2.1410 C   0  0  0  0  0  0  0  0  0  0  0  0
   14.7880    4.0800   -1.0580 C   0  0  0  0  0  0  0  0  0  0  0  0
   14.8930    4.6970    0.1160 F   0  0  0  0  0  0  0  0  0  0  0  0
   15.2770    2.7820   -1.1950 C   0  0  0  0  0  0  0  0  0  0  0  0
   15.0520   -0.2160   -1.7160 C   0  0  0  0  0  0  0  0  0  0  0  0
   15.0380   -4.0400   -1.2770 C   0  0  0  0  0  0  0  0  0  0  0  0
   16.2570   -4.7970   -0.7800 C   0  0  0  0  0  0  0  0  0  0  0  0
   14.8900   -5.1440   -0.2350 C   0  0  0  0  0  0  0  0  0  0  0  0
   13.2660   -2.4040   -0.8060 C   0  0  0  0  0  0  0  0  0  0  0  0
   12.4050   -2.3470   -1.6230 O   0  0  0  0  0  0  0  0  0  0  0  0
   11.6760   -2.5960    2.3320 H   0  0  0  0  0  0  0  0  0  0  0  0
   11.1610   -1.3170    1.1250 H   0  0  0  0  0  0  0  0  0  0  0  0
   11.0010   -3.1030    0.7200 H   0  0  0  0  0  0  0  0  0  0  0  0
   13.5820   -2.0560    3.3860 H   0  0  0  0  0  0  0  0  0  0  0  0
   16.1890   -2.6100    0.8630 H   0  0  0  0  0  0  0  0  0  0  0  0
   16.6140   -2.9900   -2.9650 H   0  0  0  0  0  0  0  0  0  0  0  0
   17.4310   -1.2990   -4.5920 H   0  0  0  0  0  0  0  0  0  0  0  0
   16.7160    1.0700   -4.4120 H   0  0  0  0  0  0  0  0  0  0  0  0
   14.4680    2.4430   -4.5110 H   0  0  0  0  0  0  0  0  0  0  0  0
   13.7330    5.7500   -2.0340 H   0  0  0  0  0  0  0  0  0  0  0  0
   15.7490    2.2520   -0.3630 H   0  0  0  0  0  0  0  0  0  0  0  0
   14.3990    0.0820   -0.8950 H   0  0  0  0  0  0  0  0  0  0  0  0
   14.6830   -4.2600   -2.3000 H   0  0  0  0  0  0  0  0  0  0  0  0
   16.7710   -5.4690   -1.4660 H   0  0  0  0  0  0  0  0  0  0  0  0
   16.9760   -4.2860   -0.1360 H   0  0  0  0  0  0  0  0  0  0  0  0
   14.6560   -4.8820    0.8040 H   0  0  0  0  0  0  0  0  0  0  0  0
   14.4030   -6.0800   -0.5400 H   0  0  0  0  0  0  0  0  0  0  0  0
   15.2810   -2.3740    3.1310 H   0  0  0  0  0  0  0  0  0  0  0  0
  1  2  1  0  0  0  0
  1 25  1  0  0  0  0
  1 26  1  0  0  0  0
  1 27  1  0  0  0  0
  2  3  1  0  0  0  0
  2 23  1  0  0  0  0
  3  4  1  0  0  0  0
  3  5  2  0  0  0  0
  4 28  1  0  0  0  0
  4 42  1  0  0  0  0
  5  6  1  0  0  0  0
  5 29  1  0  0  0  0
  6  7  1  6  0  0  0
  6 20  1  0  0  0  0
  6 23  1  0  0  0  0
  7  8  2  0  0  0  0
  7 19  1  0  0  0  0
  8  9  1  0  0  0  0
  8 30  1  0  0  0  0
  9 10  2  0  0  0  0
  9 31  1  0  0  0  0
 10 11  1  0  0  0  0
 10 32  1  0  0  0  0
 11 12  1  0  0  0  0
 11 19  2  0  0  0  0
 12 13  2  0  0  0  0
 12 18  1  0  0  0  0
 13 14  1  0  0  0  0
 13 33  1  0  0  0  0
 14 15  2  0  0  0  0
 15 16  1  0  0  0  0
 15 34  1  0  0  0  0
 16 18  2  0  0  0  0
 16 17  1  0  0  0  0
 18 35  1  0  0  0  0
 19 36  1  0  0  0  0
 20 21  1  0  0  0  0
 20 22  1  0  0  0  0
 20 37  1  0  0  0  0
 21 22  1  0  0  0  0
 21 38  1  0  0  0  0
 21 39  1  0  0  0  0
 22 40  1  0  0  0  0
 22 41  1  0  0  0  0
 23 24  2  0  0  0  0
M  CHG  1   5   1
M  END
$$$$
