17124-1
 OpenBabel02232411163D
Structure written by MMmdl.
 46 47  0  0  0  0  0  0  0  0999 V2000
   23.1960   10.8300   29.0690 C   0  0  0  0  0  0  0  0  0  0  0  0
   23.4700   11.0590   30.5400 C   0  0  0  0  0  0  0  0  0  0  0  0
   22.2060   11.1630   31.2980 O   0  0  0  0  0  0  0  0  0  0  0  0
   21.5440   10.0330   31.6350 C   0  0  0  0  0  0  0  0  0  0  0  0
   22.0040    8.8380   31.2010 N   0  0  0  0  0  0  0  0  0  0  0  0
   21.2530    7.7120   31.5050 C   0  0  0  0  0  0  0  0  0  0  0  0
   20.0950    7.7640   32.2730 C   0  0  0  0  0  0  0  0  0  0  0  0
   19.6330    9.0210   32.7480 C   0  0  0  0  0  0  0  0  0  0  0  0
   18.4850    9.0780   33.4960 N   0  0  0  0  0  0  0  0  0  0  0  0
   20.3640   10.2080   32.4180 C   0  0  0  0  0  0  0  0  0  0  0  0
   19.9700   11.5130   32.7840 C   0  0  0  0  0  0  0  0  0  0  0  0
   19.6950   12.6090   33.0430 N   0  0  0  0  0  0  0  0  0  0  0  0
   21.8110    6.5530   30.9230 N   0  0  0  0  0  0  0  0  0  0  0  0
   21.2060    5.2800   30.8250 C   0  0  0  0  0  0  0  0  0  0  0  0
   20.1290    5.0260   31.3200 O   0  0  0  0  0  0  0  0  0  0  0  0
   22.0070    4.2980   29.9790 C   0  0  0  0  0  0  0  0  0  0  0  0
   23.3600    3.9860   30.5480 C   0  0  0  0  0  0  0  0  0  0  0  0
   24.4690    4.8290   30.2820 C   0  0  0  0  0  0  0  0  0  0  0  0
   24.1620    5.9040   29.4580 O   0  0  0  0  0  0  0  0  0  0  0  0
   25.1450    6.9690   29.3420 C   0  0  0  0  0  0  0  0  0  0  0  0
   25.7400    4.5560   30.7960 C   0  0  0  0  0  0  0  0  0  0  0  0
   25.9190    3.4250   31.5910 C   0  0  0  0  0  0  0  0  0  0  0  0
   27.6490    3.0550   32.2860 Br  0  0  0  0  0  0  0  0  0  0  0  0
   24.8320    2.5690   31.8600 C   0  0  0  0  0  0  0  0  0  0  0  0
   23.5600    2.8490   31.3320 C   0  0  0  0  0  0  0  0  0  0  0  0
   25.1530    1.5050   32.6670 O   0  0  0  0  0  0  0  0  0  0  0  0
   24.1530    0.4690   32.8520 C   0  0  0  0  0  0  0  0  0  0  0  0
   22.7560    9.8210   28.8910 H   0  0  0  0  0  0  0  0  0  0  0  0
   22.5020   11.5990   28.6620 H   0  0  0  0  0  0  0  0  0  0  0  0
   24.1570   10.8960   28.5020 H   0  0  0  0  0  0  0  0  0  0  0  0
   23.8820   12.0780   30.7390 H   0  0  0  0  0  0  0  0  0  0  0  0
   24.1040   10.2560   30.9810 H   0  0  0  0  0  0  0  0  0  0  0  0
   19.5240    6.8610   32.4990 H   0  0  0  0  0  0  0  0  0  0  0  0
   17.9800    8.2120   33.7650 H   0  0  0  0  0  0  0  0  0  0  0  0
   18.0980    9.9680   33.8100 H   0  0  0  0  0  0  0  0  0  0  0  0
   22.7270    6.7040   30.4300 H   0  0  0  0  0  0  0  0  0  0  0  0
   21.4130    3.3540   29.8730 H   0  0  0  0  0  0  0  0  0  0  0  0
   22.1350    4.7540   28.9580 H   0  0  0  0  0  0  0  0  0  0  0  0
   24.5690    7.7390   28.7770 H   0  0  0  0  0  0  0  0  0  0  0  0
   25.4360    7.3470   30.3460 H   0  0  0  0  0  0  0  0  0  0  0  0
   26.0170    6.6050   28.7590 H   0  0  0  0  0  0  0  0  0  0  0  0
   26.5910    5.2120   30.5740 H   0  0  0  0  0  0  0  0  0  0  0  0
   22.7240    2.1750   31.5320 H   0  0  0  0  0  0  0  0  0  0  0  0
   24.7170   -0.2740   33.4670 H   0  0  0  0  0  0  0  0  0  0  0  0
   23.2810    0.8680   33.4130 H   0  0  0  0  0  0  0  0  0  0  0  0
   23.8640    0.0330   31.8710 H   0  0  0  0  0  0  0  0  0  0  0  0
  1  2  1  0  0  0  0
  1 28  1  0  0  0  0
  1 29  1  0  0  0  0
  1 30  1  0  0  0  0
  2  3  1  0  0  0  0
  2 31  1  0  0  0  0
  2 32  1  0  0  0  0
  3  4  1  0  0  0  0
  4 10  2  0  0  0  0
  4  5  1  0  0  0  0
  5  6  2  0  0  0  0
  6  7  1  0  0  0  0
  6 13  1  0  0  0  0
  7  8  2  0  0  0  0
  7 33  1  0  0  0  0
  8  9  1  0  0  0  0
  8 10  1  0  0  0  0
  9 34  1  0  0  0  0
  9 35  1  0  0  0  0
 10 11  1  0  0  0  0
 11 12  3  0  0  0  0
 13 14  1  0  0  0  0
 13 36  1  0  0  0  0
 14 15  2  0  0  0  0
 14 16  1  0  0  0  0
 16 17  1  0  0  0  0
 16 37  1  0  0  0  0
 16 38  1  0  0  0  0
 17 25  2  0  0  0  0
 17 18  1  0  0  0  0
 18 19  1  0  0  0  0
 18 21  2  0  0  0  0
 19 20  1  0  0  0  0
 20 39  1  0  0  0  0
 20 40  1  0  0  0  0
 20 41  1  0  0  0  0
 21 22  1  0  0  0  0
 21 42  1  0  0  0  0
 22 23  1  0  0  0  0
 22 24  2  0  0  0  0
 24 25  1  0  0  0  0
 24 26  1  0  0  0  0
 25 43  1  0  0  0  0
 26 27  1  0  0  0  0
 27 44  1  0  0  0  0
 27 45  1  0  0  0  0
 27 46  1  0  0  0  0
M  END
$$$$
