p38a_3fmh
 OpenBabel02232411163D
Structure written by MMmdl.
 46 49  0  0  1  0  0  0  0  0999 V2000
   38.3580   37.2390   14.8900 F   0  0  0  0  0  0  0  0  0  0  0  0
   37.6540   36.7210   15.8930 C   0  0  0  0  0  0  0  0  0  0  0  0
   36.3090   36.4190   15.6700 C   0  0  0  0  0  0  0  0  0  0  0  0
   35.5380   35.9280   16.7290 C   0  0  0  0  0  0  0  0  0  0  0  0
   38.2910   36.5480   17.1300 C   0  0  0  0  0  0  0  0  0  0  0  0
   37.5000   36.0740   18.1720 C   0  0  0  0  0  0  0  0  0  0  0  0
   38.0170   35.9300   19.3850 F   0  0  0  0  0  0  0  0  0  0  0  0
   36.1410   35.7460   17.9760 C   0  0  0  0  0  0  0  0  0  0  0  0
   35.4130   35.1120   18.9940 O   0  0  0  0  0  0  0  0  0  0  0  0
   35.0140   35.9360   20.0430 C   0  0  0  0  0  0  0  0  0  0  0  0
   34.4960   35.0780   21.1430 C   0  0  0  0  0  0  0  0  0  0  0  0
   34.3720   33.8740   21.0990 O   0  0  0  0  0  0  0  0  0  0  0  0
   34.1290   35.7950   22.3350 N   0  0  0  0  0  0  0  0  0  0  0  0
   33.6420   35.0350   23.5210 C   0  0  0  0  0  0  0  0  0  0  0  0
   34.2170   37.1930   22.4170 C   0  0  0  0  0  0  0  0  0  0  0  0
   33.8750   37.7980   23.6030 N   0  0  0  0  0  0  0  0  0  0  0  0
   35.0580   37.2870   20.0850 C   0  0  0  0  0  0  0  0  0  0  0  0
   34.6510   37.9550   21.2910 C   0  0  0  0  0  0  0  0  0  0  0  0
   34.6720   39.3670   21.4380 C   0  0  0  0  0  0  0  0  0  0  0  0
   34.3580   39.9830   22.5890 N   0  0  0  0  0  0  0  0  0  0  0  0
   33.9870   39.1670   23.6700 C   0  0  0  0  0  0  0  0  0  0  0  0
   33.7980   39.7940   24.8980 N   0  0  0  0  0  0  0  0  0  0  0  0
   32.9400   39.1530   25.9470 C   0  0  2  0  0  0  0  0  0  0  0  0
   31.4600   39.4070   25.6580 C   0  0  0  0  0  0  0  0  0  0  0  0
   33.4050   39.7910   27.2910 C   0  0  0  0  0  0  0  0  0  0  0  0
   32.7850   39.1450   28.4700 N   0  0  0  0  0  0  0  0  0  0  0  0
   32.5060   37.8170   28.5690 N   0  0  0  0  0  0  0  0  0  0  0  0
   32.0040   37.6720   29.8290 C   0  0  0  0  0  0  0  0  0  0  0  0
   32.0030   38.9360   30.4740 N   0  0  0  0  0  0  0  0  0  0  0  0
   32.4760   39.8030   29.6360 N   0  0  0  0  0  0  0  0  0  0  0  0
   35.8460   36.5780   14.6940 H   0  0  0  0  0  0  0  0  0  0  0  0
   34.4770   35.7070   16.5760 H   0  0  0  0  0  0  0  0  0  0  0  0
   39.3420   36.8130   17.2790 H   0  0  0  0  0  0  0  0  0  0  0  0
   34.2800   35.2670   24.4170 H   0  0  0  0  0  0  0  0  0  0  0  0
   32.5830   35.3320   23.7550 H   0  0  0  0  0  0  0  0  0  0  0  0
   33.6790   33.9330   23.3190 H   0  0  0  0  0  0  0  0  0  0  0  0
   35.4010   37.8990   19.2480 H   0  0  0  0  0  0  0  0  0  0  0  0
   34.9440   40.0050   20.5820 H   0  0  0  0  0  0  0  0  0  0  0  0
   33.7370   40.8350   24.8980 H   0  0  0  0  0  0  0  0  0  0  0  0
   33.1500   38.0440   25.9690 H   0  0  0  0  0  0  0  0  0  0  0  0
   30.8260   38.9900   26.4710 H   0  0  0  0  0  0  0  0  0  0  0  0
   31.2610   40.4980   25.5580 H   0  0  0  0  0  0  0  0  0  0  0  0
   31.1640   38.9020   24.7080 H   0  0  0  0  0  0  0  0  0  0  0  0
   34.5290   39.6950   27.3730 H   0  0  0  0  0  0  0  0  0  0  0  0
   33.1430   40.8890   27.3130 H   0  0  0  0  0  0  0  0  0  0  0  0
   31.6580   36.7440   30.2830 H   0  0  0  0  0  0  0  0  0  0  0  0
  1  2  1  0  0  0  0
  2  3  2  0  0  0  0
  2  5  1  0  0  0  0
  3  4  1  0  0  0  0
  3 31  1  0  0  0  0
  4  8  2  0  0  0  0
  4 32  1  0  0  0  0
  5  6  2  0  0  0  0
  5 33  1  0  0  0  0
  6  7  1  0  0  0  0
  6  8  1  0  0  0  0
  8  9  1  0  0  0  0
  9 10  1  0  0  0  0
 10 11  1  0  0  0  0
 10 17  2  0  0  0  0
 11 12  2  0  0  0  0
 11 13  1  0  0  0  0
 13 14  1  0  0  0  0
 13 15  1  0  0  0  0
 14 34  1  0  0  0  0
 14 35  1  0  0  0  0
 14 36  1  0  0  0  0
 15 16  2  0  0  0  0
 15 18  1  0  0  0  0
 16 21  1  0  0  0  0
 17 18  1  0  0  0  0
 17 37  1  0  0  0  0
 18 19  2  0  0  0  0
 19 20  1  0  0  0  0
 19 38  1  0  0  0  0
 20 21  2  0  0  0  0
 21 22  1  0  0  0  0
 22 23  1  0  0  0  0
 22 39  1  0  0  0  0
 23 24  1  0  0  0  0
 23 25  1  0  0  0  0
 23 40  1  6  0  0  0
 24 41  1  0  0  0  0
 24 42  1  0  0  0  0
 24 43  1  0  0  0  0
 25 26  1  0  0  0  0
 25 44  1  0  0  0  0
 25 45  1  0  0  0  0
 26 27  1  0  0  0  0
 26 30  1  0  0  0  0
 27 28  2  0  0  0  0
 28 29  1  0  0  0  0
 28 46  1  0  0  0  0
 29 30  2  0  0  0  0
M  END
$$$$
