63
                    3D
 Schrodinger Suite 2022-3.
 43 45  0  0  1  0  0  0  0  0999 V2000
    3.3810  -47.7440    7.3820 O   0  0  0  0  0  0  0  0  0  0  0  0
    3.2610  -48.8240    6.7880 C   0  0  0  0  0  0  0  0  0  0  0  0
    4.1590  -49.6240    6.4690 O   0  5  0  0  0  0  0  0  0  0  0  0
    1.8380  -49.2740    6.4660 C   0  0  0  0  0  0  0  0  0  0  0  0
    1.4730  -50.9270    6.9140 S   0  0  0  0  0  0  0  0  0  0  0  0
   -0.2000  -50.7580    6.4740 C   0  0  0  0  0  0  0  0  0  0  0  0
   -1.1980  -51.7180    6.6000 C   0  0  0  0  0  0  0  0  0  0  0  0
   -2.4650  -51.3350    6.1760 C   0  0  0  0  0  0  0  0  0  0  0  0
   -2.7600  -50.0730    5.6450 C   0  0  0  0  0  0  0  0  0  0  0  0
   -1.7440  -49.1280    5.5280 C   0  0  0  0  0  0  0  0  0  0  0  0
   -0.4450  -49.4600    5.9490 C   0  0  0  0  0  0  0  0  0  0  0  0
    0.7580  -48.6230    5.9650 C   0  0  0  0  0  0  0  0  0  0  0  0
    0.7190  -47.1980    5.5130 C   0  0  0  0  0  0  0  0  0  0  0  0
    0.6040  -46.2380    6.7080 C   0  0  0  0  0  0  0  0  0  0  0  0
   -0.7340  -46.3220    7.4330 C   0  0  0  0  0  0  0  0  0  0  0  0
   -1.6760  -45.7040    6.4780 O   0  0  0  0  0  0  0  0  0  0  0  0
   -2.9530  -45.4740    6.8840 C   0  0  0  0  0  0  0  0  0  0  0  0
   -3.4950  -45.8860    8.1110 C   0  0  0  0  0  0  0  0  0  0  0  0
   -4.8260  -45.5680    8.4110 C   0  0  0  0  0  0  0  0  0  0  0  0
   -5.4270  -45.9830    9.7120 C   0  0  0  0  0  0  0  0  0  0  0  0
   -5.5820  -44.8650    7.4610 C   0  0  0  0  0  0  0  0  0  0  0  0
   -7.2430  -44.5380    7.7980 Cl  0  0  0  0  0  0  0  0  0  0  0  0
   -5.0520  -44.4550    6.2210 C   0  0  0  0  0  0  0  0  0  0  0  0
   -5.9090  -43.7690    5.2100 C   0  0  0  0  0  0  0  0  0  0  0  0
   -3.7210  -44.7590    5.9390 C   0  0  0  0  0  0  0  0  0  0  0  0
   -1.0150  -52.7140    7.0100 H   0  0  0  0  0  0  0  0  0  0  0  0
   -3.7440  -52.4960    6.2750 Cl  0  0  0  0  0  0  0  0  0  0  0  0
   -3.7790  -49.8410    5.3280 H   0  0  0  0  0  0  0  0  0  0  0  0
   -1.9820  -48.1440    5.1180 H   0  0  0  0  0  0  0  0  0  0  0  0
   -0.1600  -47.0340    4.8400 H   0  0  0  0  0  0  0  0  0  0  0  0
    1.6460  -46.9420    4.9430 H   0  0  0  0  0  0  0  0  0  0  0  0
    0.7280  -45.1900    6.3470 H   0  0  0  0  0  0  0  0  0  0  0  0
    1.4190  -46.4900    7.4380 H   0  0  0  0  0  0  0  0  0  0  0  0
   -0.7480  -45.7010    8.3540 H   0  0  0  0  0  0  0  0  0  0  0  0
   -1.0870  -47.3620    7.5950 H   0  0  0  0  0  0  0  0  0  0  0  0
   -2.9220  -46.4710    8.8250 H   0  0  0  0  0  0  0  0  0  0  0  0
   -5.9700  -45.1330   10.1910 H   0  0  0  0  0  0  0  0  0  0  0  0
   -6.1620  -46.8070    9.5380 H   0  0  0  0  0  0  0  0  0  0  0  0
   -4.6510  -46.3600   10.4170 H   0  0  0  0  0  0  0  0  0  0  0  0
   -5.2990  -43.4100    4.3490 H   0  0  0  0  0  0  0  0  0  0  0  0
   -6.6760  -44.4910    4.8310 H   0  0  0  0  0  0  0  0  0  0  0  0
   -6.4440  -42.8980    5.6550 H   0  0  0  0  0  0  0  0  0  0  0  0
   -3.2770  -44.4670    4.9930 H   0  0  0  0  0  0  0  0  0  0  0  0
  1  2  2  0  0  0  0
  2  3  1  0  0  0  0
  2  4  1  0  0  0  0
  4  5  1  0  0  0  0
  4 12  2  0  0  0  0
  5  6  1  0  0  0  0
  6  7  1  0  0  0  0
  6 11  2  0  0  0  0
  7  8  2  0  0  0  0
  7 26  1  0  0  0  0
  8  9  1  0  0  0  0
  8 27  1  0  0  0  0
  9 10  2  0  0  0  0
  9 28  1  0  0  0  0
 10 11  1  0  0  0  0
 10 29  1  0  0  0  0
 11 12  1  0  0  0  0
 12 13  1  0  0  0  0
 13 30  1  0  0  0  0
 13 31  1  0  0  0  0
 13 14  1  0  0  0  0
 14 15  1  0  0  0  0
 14 32  1  0  0  0  0
 14 33  1  0  0  0  0
 15 16  1  0  0  0  0
 15 34  1  0  0  0  0
 15 35  1  0  0  0  0
 16 17  1  0  0  0  0
 17 18  1  0  0  0  0
 17 25  2  0  0  0  0
 18 19  2  0  0  0  0
 18 36  1  0  0  0  0
 19 20  1  0  0  0  0
 19 21  1  0  0  0  0
 20 37  1  0  0  0  0
 20 38  1  0  0  0  0
 20 39  1  0  0  0  0
 21 22  1  0  0  0  0
 21 23  2  0  0  0  0
 23 24  1  0  0  0  0
 23 25  1  0  0  0  0
 24 40  1  0  0  0  0
 24 41  1  0  0  0  0
 24 42  1  0  0  0  0
 25 43  1  0  0  0  0
M  CHG  1   3  -1
M  END
$$$$
