18652-1
 OpenBabel02232411163D
Structure written by MMmdl.
 55 56  0  0  0  0  0  0  0  0999 V2000
   23.3910   12.6150   29.8180 C   0  0  0  0  0  0  0  0  0  0  0  0
   23.2790   11.1370   30.1700 C   0  0  0  0  0  0  0  0  0  0  0  0
   24.5460   10.5430   30.7540 C   0  0  0  0  0  0  0  0  0  0  0  0
   22.1980   11.1790   31.2090 O   0  0  0  0  0  0  0  0  0  0  0  0
   21.5640   10.0500   31.5730 C   0  0  0  0  0  0  0  0  0  0  0  0
   22.0070    8.8490   31.1230 N   0  0  0  0  0  0  0  0  0  0  0  0
   21.2840    7.7260   31.4860 C   0  0  0  0  0  0  0  0  0  0  0  0
   20.1470    7.7850   32.2860 C   0  0  0  0  0  0  0  0  0  0  0  0
   19.6820    9.0460   32.7450 C   0  0  0  0  0  0  0  0  0  0  0  0
   18.5350    9.1090   33.4960 N   0  0  0  0  0  0  0  0  0  0  0  0
   20.4080   10.2270   32.3940 C   0  0  0  0  0  0  0  0  0  0  0  0
   20.0210   11.5320   32.7640 C   0  0  0  0  0  0  0  0  0  0  0  0
   19.7460   12.6270   33.0300 N   0  0  0  0  0  0  0  0  0  0  0  0
   21.8270    6.5380   30.9350 N   0  0  0  0  0  0  0  0  0  0  0  0
   21.1520    5.3030   30.8480 C   0  0  0  0  0  0  0  0  0  0  0  0
   20.0780    5.1010   31.3750 O   0  0  0  0  0  0  0  0  0  0  0  0
   21.8370    4.2810   29.9560 C   0  0  0  0  0  0  0  0  0  0  0  0
   23.2200    3.8650   30.3630 C   0  0  0  0  0  0  0  0  0  0  0  0
   24.3550    4.5720   29.8630 C   0  0  0  0  0  0  0  0  0  0  0  0
   24.0160    5.7230   29.1540 O   0  0  0  0  0  0  0  0  0  0  0  0
   25.0410    6.7500   29.0600 C   0  0  0  0  0  0  0  0  0  0  0  0
   25.6420    4.0810   30.0270 C   0  0  0  0  0  0  0  0  0  0  0  0
   25.8680    2.9030   30.7680 C   0  0  0  0  0  0  0  0  0  0  0  0
   27.5090    2.2960   30.8410 S   0  0  0  0  0  0  0  0  0  0  0  0
   27.4790    0.9590   31.4860 O   0  0  0  0  0  0  0  0  0  0  0  0
   28.3600    3.2330   31.6130 O   0  0  0  0  0  0  0  0  0  0  0  0
   28.0350    2.1660   29.1920 C   0  0  0  0  0  0  0  0  0  0  0  0
   24.7690    2.2840   31.3810 C   0  0  0  0  0  0  0  0  0  0  0  0
   23.4420    2.7430   31.1400 C   0  0  0  0  0  0  0  0  0  0  0  0
   25.0710    1.2390   32.2070 O   0  0  0  0  0  0  0  0  0  0  0  0
   23.9720    0.5370   32.8590 C   0  0  0  0  0  0  0  0  0  0  0  0
   22.3830   13.0500   29.6320 H   0  0  0  0  0  0  0  0  0  0  0  0
   23.8930   13.1930   30.6250 H   0  0  0  0  0  0  0  0  0  0  0  0
   23.9950   12.7140   28.8810 H   0  0  0  0  0  0  0  0  0  0  0  0
   22.8890   10.5350   29.3170 H   0  0  0  0  0  0  0  0  0  0  0  0
   24.4180    9.4550   30.9640 H   0  0  0  0  0  0  0  0  0  0  0  0
   25.3790   10.6490   30.0150 H   0  0  0  0  0  0  0  0  0  0  0  0
   24.8400   11.0560   31.6920 H   0  0  0  0  0  0  0  0  0  0  0  0
   19.5920    6.8820   32.5490 H   0  0  0  0  0  0  0  0  0  0  0  0
   18.0110    8.2480   33.7430 H   0  0  0  0  0  0  0  0  0  0  0  0
   18.1420   10.0020   33.7930 H   0  0  0  0  0  0  0  0  0  0  0  0
   22.7290    6.6430   30.4140 H   0  0  0  0  0  0  0  0  0  0  0  0
   21.1900    3.3670   29.9040 H   0  0  0  0  0  0  0  0  0  0  0  0
   21.8890    4.7370   28.9250 H   0  0  0  0  0  0  0  0  0  0  0  0
   25.7780    6.4550   28.2820 H   0  0  0  0  0  0  0  0  0  0  0  0
   24.4460    7.6390   28.7460 H   0  0  0  0  0  0  0  0  0  0  0  0
   25.5260    6.9140   30.0460 H   0  0  0  0  0  0  0  0  0  0  0  0
   26.4830    4.6090   29.5640 H   0  0  0  0  0  0  0  0  0  0  0  0
   28.1540    3.1640   28.6910 H   0  0  0  0  0  0  0  0  0  0  0  0
   29.0280    1.6540   29.0980 H   0  0  0  0  0  0  0  0  0  0  0  0
   27.3130    1.5870   28.5600 H   0  0  0  0  0  0  0  0  0  0  0  0
   22.5910    2.1960   31.5480 H   0  0  0  0  0  0  0  0  0  0  0  0
   23.4150    1.2260   33.5290 H   0  0  0  0  0  0  0  0  0  0  0  0
   23.3170    0.0600   32.0990 H   0  0  0  0  0  0  0  0  0  0  0  0
   24.5200   -0.2370   33.4500 H   0  0  0  0  0  0  0  0  0  0  0  0
  1  2  1  0  0  0  0
  1 32  1  0  0  0  0
  1 33  1  0  0  0  0
  1 34  1  0  0  0  0
  2  3  1  0  0  0  0
  2  4  1  0  0  0  0
  2 35  1  0  0  0  0
  3 36  1  0  0  0  0
  3 37  1  0  0  0  0
  3 38  1  0  0  0  0
  4  5  1  0  0  0  0
  5 11  2  0  0  0  0
  5  6  1  0  0  0  0
  6  7  2  0  0  0  0
  7  8  1  0  0  0  0
  7 14  1  0  0  0  0
  8  9  2  0  0  0  0
  8 39  1  0  0  0  0
  9 10  1  0  0  0  0
  9 11  1  0  0  0  0
 10 40  1  0  0  0  0
 10 41  1  0  0  0  0
 11 12  1  0  0  0  0
 12 13  3  0  0  0  0
 14 15  1  0  0  0  0
 14 42  1  0  0  0  0
 15 16  2  0  0  0  0
 15 17  1  0  0  0  0
 17 18  1  0  0  0  0
 17 43  1  0  0  0  0
 17 44  1  0  0  0  0
 18 29  2  0  0  0  0
 18 19  1  0  0  0  0
 19 20  1  0  0  0  0
 19 22  2  0  0  0  0
 20 21  1  0  0  0  0
 21 45  1  0  0  0  0
 21 46  1  0  0  0  0
 21 47  1  0  0  0  0
 22 23  1  0  0  0  0
 22 48  1  0  0  0  0
 23 24  1  0  0  0  0
 23 28  2  0  0  0  0
 24 25  2  0  0  0  0
 24 26  2  0  0  0  0
 24 27  1  0  0  0  0
 27 49  1  0  0  0  0
 27 50  1  0  0  0  0
 27 51  1  0  0  0  0
 28 29  1  0  0  0  0
 28 30  1  0  0  0  0
 29 52  1  0  0  0  0
 30 31  1  0  0  0  0
 31 53  1  0  0  0  0
 31 54  1  0  0  0  0
 31 55  1  0  0  0  0
M  END
$$$$
