p38a_3flq
 OpenBabel02232411163D
Structure written by MMmdl.
 47 49  0  0  1  0  0  0  0  0999 V2000
   33.7230   39.1300   24.0020 C   0  0  0  0  0  0  0  0  0  0  0  0
   34.6440   37.9040   21.6980 C   0  0  0  0  0  0  0  0  0  0  0  0
   35.1590   37.2280   20.5350 C   0  0  0  0  0  0  0  0  0  0  0  0
   34.0240   37.1630   22.7470 C   0  0  0  0  0  0  0  0  0  0  0  0
   35.0360   35.8830   20.4600 C   0  0  0  0  0  0  0  0  0  0  0  0
   32.2690   39.4840   26.1200 C   0  0  1  0  0  0  0  0  0  0  0  0
   31.7990   38.0370   26.1140 C   0  0  0  0  0  0  0  0  0  0  0  0
   35.4500   39.7480   27.5070 C   0  0  0  0  0  0  0  0  0  0  0  0
   33.8740   35.7720   22.6350 N   0  0  0  0  0  0  0  0  0  0  0  0
   32.6570   39.9780   27.5330 C   0  0  0  0  0  0  0  0  0  0  0  0
   38.2810   36.9040   15.1440 F   0  0  0  0  0  0  0  0  0  0  0  0
   37.6230   36.4270   16.1980 C   0  0  0  0  0  0  0  0  0  0  0  0
   38.2460   36.4690   17.4480 C   0  0  0  0  0  0  0  0  0  0  0  0
   37.5250   36.0710   18.5790 C   0  0  0  0  0  0  0  0  0  0  0  0
   36.3250   35.9400   15.9980 C   0  0  0  0  0  0  0  0  0  0  0  0
   35.6380   35.5230   17.1340 C   0  0  0  0  0  0  0  0  0  0  0  0
   34.4150   35.0200   17.0350 F   0  0  0  0  0  0  0  0  0  0  0  0
   36.2190   35.5990   18.4170 C   0  0  0  0  0  0  0  0  0  0  0  0
   35.4680   35.0280   19.4520 O   0  0  0  0  0  0  0  0  0  0  0  0
   34.3460   35.0480   21.4860 C   0  0  0  0  0  0  0  0  0  0  0  0
   34.1660   33.8530   21.4060 O   0  0  0  0  0  0  0  0  0  0  0  0
   34.7250   39.3090   21.8790 C   0  0  0  0  0  0  0  0  0  0  0  0
   34.2860   39.9280   22.9870 N   0  0  0  0  0  0  0  0  0  0  0  0
   33.5630   37.7720   23.8910 N   0  0  0  0  0  0  0  0  0  0  0  0
   33.1950   35.0290   23.7340 C   0  0  0  0  0  0  0  0  0  0  0  0
   33.4240   39.7910   25.1940 N   0  0  0  0  0  0  0  0  0  0  0  0
   34.0270   39.2300   28.3570 S   0  0  0  0  0  0  0  0  0  0  0  0
   34.0690   39.7370   29.7570 O   0  0  0  0  0  0  0  0  0  0  0  0
   33.9330   37.7570   28.3690 O   0  0  0  0  0  0  0  0  0  0  0  0
   35.6360   37.8330   19.7600 H   0  0  0  0  0  0  0  0  0  0  0  0
   31.4070   40.1340   25.7730 H   0  0  0  0  0  0  0  0  0  0  0  0
   31.3340   37.7810   25.1340 H   0  0  0  0  0  0  0  0  0  0  0  0
   32.6420   37.3280   26.3020 H   0  0  0  0  0  0  0  0  0  0  0  0
   31.0240   37.8940   26.9040 H   0  0  0  0  0  0  0  0  0  0  0  0
   36.3810   39.6140   28.1130 H   0  0  0  0  0  0  0  0  0  0  0  0
   35.5860   39.1970   26.5390 H   0  0  0  0  0  0  0  0  0  0  0  0
   35.3990   40.8410   27.2420 H   0  0  0  0  0  0  0  0  0  0  0  0
   32.8380   41.0900   27.4800 H   0  0  0  0  0  0  0  0  0  0  0  0
   31.7410   39.8470   28.1740 H   0  0  0  0  0  0  0  0  0  0  0  0
   39.2730   36.8350   17.5460 H   0  0  0  0  0  0  0  0  0  0  0  0
   37.9780   36.1500   19.5700 H   0  0  0  0  0  0  0  0  0  0  0  0
   35.8700   35.9150   15.0030 H   0  0  0  0  0  0  0  0  0  0  0  0
   35.1520   39.9450   21.0860 H   0  0  0  0  0  0  0  0  0  0  0  0
   33.1650   33.9330   23.5020 H   0  0  0  0  0  0  0  0  0  0  0  0
   33.7480   35.1880   24.7000 H   0  0  0  0  0  0  0  0  0  0  0  0
   32.1460   35.4120   23.8610 H   0  0  0  0  0  0  0  0  0  0  0  0
   33.6080   40.8240   25.1730 H   0  0  0  0  0  0  0  0  0  0  0  0
  1 23  2  0  0  0  0
  1 24  1  0  0  0  0
  1 26  1  0  0  0  0
  2  3  1  0  0  0  0
  2  4  1  0  0  0  0
  2 22  2  0  0  0  0
  3  5  2  0  0  0  0
  3 30  1  0  0  0  0
  4  9  1  0  0  0  0
  4 24  2  0  0  0  0
  5 19  1  0  0  0  0
  5 20  1  0  0  0  0
  6  7  1  0  0  0  0
  6 10  1  0  0  0  0
  6 26  1  0  0  0  0
  6 31  1  6  0  0  0
  7 32  1  0  0  0  0
  7 33  1  0  0  0  0
  7 34  1  0  0  0  0
  8 27  1  0  0  0  0
  8 35  1  0  0  0  0
  8 36  1  0  0  0  0
  8 37  1  0  0  0  0
  9 20  1  0  0  0  0
  9 25  1  0  0  0  0
 10 27  1  0  0  0  0
 10 38  1  0  0  0  0
 10 39  1  0  0  0  0
 11 12  1  0  0  0  0
 12 13  2  0  0  0  0
 12 15  1  0  0  0  0
 13 14  1  0  0  0  0
 13 40  1  0  0  0  0
 14 18  2  0  0  0  0
 14 41  1  0  0  0  0
 15 16  2  0  0  0  0
 15 42  1  0  0  0  0
 16 17  1  0  0  0  0
 16 18  1  0  0  0  0
 18 19  1  0  0  0  0
 20 21  2  0  0  0  0
 22 23  1  0  0  0  0
 22 43  1  0  0  0  0
 25 44  1  0  0  0  0
 25 45  1  0  0  0  0
 25 46  1  0  0  0  0
 26 47  1  0  0  0  0
 27 28  2  0  0  0  0
 27 29  2  0  0  0  0
M  END
$$$$
