p38a_2ee
 OpenBabel02232411163D
Structure written by MMmdl.
 52 55  0  0  0  0  0  0  0  0999 V2000
   38.2660   36.5240   17.1740 C   0  0  0  0  0  0  0  0  0  0  0  0
   34.6140   35.1220   21.2560 C   0  0  0  0  0  0  0  0  0  0  0  0
   37.4620   36.0710   18.2160 C   0  0  0  0  0  0  0  0  0  0  0  0
   34.1250   39.2300   23.7650 C   0  0  0  0  0  0  0  0  0  0  0  0
   34.6850   37.9990   21.3570 C   0  0  0  0  0  0  0  0  0  0  0  0
   35.0230   37.3290   20.1320 C   0  0  0  0  0  0  0  0  0  0  0  0
   37.6400   36.6860   15.9300 C   0  0  0  0  0  0  0  0  0  0  0  0
   36.2950   36.3880   15.7010 C   0  0  0  0  0  0  0  0  0  0  0  0
   35.5110   35.9220   16.7620 C   0  0  0  0  0  0  0  0  0  0  0  0
   34.4120   37.2430   22.5360 C   0  0  0  0  0  0  0  0  0  0  0  0
   34.6270   39.4140   21.4750 C   0  0  0  0  0  0  0  0  0  0  0  0
   35.0170   35.9760   20.1080 C   0  0  0  0  0  0  0  0  0  0  0  0
   36.1000   35.7580   18.0190 C   0  0  0  0  0  0  0  0  0  0  0  0
   34.2530   35.0710   23.7540 C   0  0  0  0  0  0  0  0  0  0  0  0
   37.9760   35.9320   19.4320 F   0  0  0  0  0  0  0  0  0  0  0  0
   35.3490   35.1510   19.0340 O   0  0  0  0  0  0  0  0  0  0  0  0
   34.3600   40.0380   22.6310 N   0  0  0  0  0  0  0  0  0  0  0  0
   34.4450   33.9230   21.2220 O   0  0  0  0  0  0  0  0  0  0  0  0
   34.4120   35.8400   22.4880 N   0  0  0  0  0  0  0  0  0  0  0  0
   34.1250   37.8510   23.7340 N   0  0  0  0  0  0  0  0  0  0  0  0
   33.9250   39.9000   24.9520 N   0  0  0  0  0  0  0  0  0  0  0  0
   39.3190   36.7800   17.3250 H   0  0  0  0  0  0  0  0  0  0  0  0
   35.2860   37.9380   19.2650 H   0  0  0  0  0  0  0  0  0  0  0  0
   35.8420   36.5330   14.7170 H   0  0  0  0  0  0  0  0  0  0  0  0
   34.4500   35.7080   16.6020 H   0  0  0  0  0  0  0  0  0  0  0  0
   34.7950   40.0480   20.5890 H   0  0  0  0  0  0  0  0  0  0  0  0
   35.1100   35.3010   24.4420 H   0  0  0  0  0  0  0  0  0  0  0  0
   33.2960   35.3630   24.2620 H   0  0  0  0  0  0  0  0  0  0  0  0
   34.2360   33.9700   23.5390 H   0  0  0  0  0  0  0  0  0  0  0  0
   33.8760   40.9390   24.9350 H   0  0  0  0  0  0  0  0  0  0  0  0
   38.3550   37.1880   14.9260 F   0  0  0  0  0  0  0  0  0  0  0  0
   33.7350   37.6390   28.0780 C   0  0  0  0  0  0  0  0  0  0  0  0
   34.3510   38.2780   26.8170 C   0  0  0  0  0  0  0  0  0  0  0  0
   33.3790   39.3100   26.2120 C   0  0  0  0  0  0  0  0  0  0  0  0
   31.9610   38.7330   25.9970 C   0  0  0  0  0  0  0  0  0  0  0  0
   31.4430   38.0650   27.2840 C   0  0  0  0  0  0  0  0  0  0  0  0
   32.3980   37.0390   27.8010 N   0  0  0  0  0  0  0  0  0  0  0  0
   33.5970   38.4270   28.8700 H   0  0  0  0  0  0  0  0  0  0  0  0
   34.4390   36.8710   28.4890 H   0  0  0  0  0  0  0  0  0  0  0  0
   34.5930   37.4800   26.0760 H   0  0  0  0  0  0  0  0  0  0  0  0
   35.3030   38.7900   27.0990 H   0  0  0  0  0  0  0  0  0  0  0  0
   33.3070   40.1860   26.9260 H   0  0  0  0  0  0  0  0  0  0  0  0
   31.2690   39.5610   25.7110 H   0  0  0  0  0  0  0  0  0  0  0  0
   31.9790   37.9850   25.1700 H   0  0  0  0  0  0  0  0  0  0  0  0
   31.3180   38.8380   28.0900 H   0  0  0  0  0  0  0  0  0  0  0  0
   30.4490   37.5860   27.0860 H   0  0  0  0  0  0  0  0  0  0  0  0
   32.2870   35.7090   27.3120 C   0  0  0  0  0  0  0  0  0  0  0  0
   31.2340   35.3490   26.7980 O   0  0  0  0  0  0  0  0  0  0  0  0
   33.4090   34.7490   27.5730 C   0  0  0  0  0  0  0  0  0  0  0  0
   34.3430   35.0450   27.0330 H   0  0  0  0  0  0  0  0  0  0  0  0
   33.6620   34.6920   28.6630 H   0  0  0  0  0  0  0  0  0  0  0  0
   33.1370   33.7170   27.2390 H   0  0  0  0  0  0  0  0  0  0  0  0
  1  3  2  0  0  0  0
  1  7  1  0  0  0  0
  1 22  1  0  0  0  0
  2 12  1  0  0  0  0
  2 18  2  0  0  0  0
  2 19  1  0  0  0  0
  3 13  1  0  0  0  0
  3 15  1  0  0  0  0
  4 17  2  0  0  0  0
  4 20  1  0  0  0  0
  4 21  1  0  0  0  0
  5  6  1  0  0  0  0
  5 10  1  0  0  0  0
  5 11  2  0  0  0  0
  6 12  2  0  0  0  0
  6 23  1  0  0  0  0
  7  8  2  0  0  0  0
  7 31  1  0  0  0  0
  8  9  1  0  0  0  0
  8 24  1  0  0  0  0
  9 13  2  0  0  0  0
  9 25  1  0  0  0  0
 10 19  1  0  0  0  0
 10 20  2  0  0  0  0
 11 17  1  0  0  0  0
 11 26  1  0  0  0  0
 12 16  1  0  0  0  0
 13 16  1  0  0  0  0
 14 19  1  0  0  0  0
 14 27  1  0  0  0  0
 14 28  1  0  0  0  0
 14 29  1  0  0  0  0
 21 30  1  0  0  0  0
 21 34  1  0  0  0  0
 32 33  1  0  0  0  0
 32 37  1  0  0  0  0
 32 38  1  0  0  0  0
 32 39  1  0  0  0  0
 33 34  1  0  0  0  0
 33 40  1  0  0  0  0
 33 41  1  0  0  0  0
 34 35  1  0  0  0  0
 34 42  1  0  0  0  0
 35 36  1  0  0  0  0
 35 43  1  0  0  0  0
 35 44  1  0  0  0  0
 36 37  1  0  0  0  0
 36 45  1  0  0  0  0
 36 46  1  0  0  0  0
 37 47  1  0  0  0  0
 47 48  2  0  0  0  0
 47 49  1  0  0  0  0
 49 50  1  0  0  0  0
 49 51  1  0  0  0  0
 49 52  1  0  0  0  0
M  END
$$$$
