57
 OpenBabel02232411163D
Structure written by MMmdl.
 47 50  0  0  0  0  0  0  0  0999 V2000
    3.3600  -48.1390    7.1010 O   0  0  0  0  0  0  0  0  0  0  0  0
    2.9700  -49.0800    6.3950 C   0  0  0  0  0  0  0  0  0  0  0  0
    3.6730  -49.8190    5.6780 O   0  5  0  0  0  0  0  0  0  0  0  0
    1.4660  -49.4190    6.3790 C   0  0  0  0  0  0  0  0  0  0  0  0
   -0.3890  -50.7550    6.5770 C   0  0  0  0  0  0  0  0  0  0  0  0
   -1.3140  -51.7870    6.8220 C   0  0  0  0  0  0  0  0  0  0  0  0
   -2.6420  -51.5490    6.5050 C   0  0  0  0  0  0  0  0  0  0  0  0
   -3.0580  -50.3120    5.9540 C   0  0  0  0  0  0  0  0  0  0  0  0
   -2.1550  -49.2870    5.7170 C   0  0  0  0  0  0  0  0  0  0  0  0
   -0.7990  -49.4850    6.0290 C   0  0  0  0  0  0  0  0  0  0  0  0
    0.3850  -48.6620    5.9340 C   0  0  0  0  0  0  0  0  0  0  0  0
    0.3630  -47.2550    5.4530 C   0  0  0  0  0  0  0  0  0  0  0  0
    0.3260  -46.2250    6.5980 C   0  0  0  0  0  0  0  0  0  0  0  0
   -0.8340  -46.3940    7.5720 C   0  0  0  0  0  0  0  0  0  0  0  0
   -2.0250  -45.8520    6.8820 O   0  0  0  0  0  0  0  0  0  0  0  0
   -3.2020  -45.8610    7.5690 C   0  0  0  0  0  0  0  0  0  0  0  0
   -5.7190  -45.6390    8.8080 C   0  0  0  0  0  0  0  0  0  0  0  0
   -4.7230  -46.3990    9.3700 C   0  0  0  0  0  0  0  0  0  0  0  0
   -3.4460  -46.5140    8.7630 C   0  0  0  0  0  0  0  0  0  0  0  0
   -1.0080  -52.7420    7.2490 H   0  0  0  0  0  0  0  0  0  0  0  0
   -3.3910  -52.3220    6.6820 H   0  0  0  0  0  0  0  0  0  0  0  0
   -4.1140  -50.1750    5.7180 H   0  0  0  0  0  0  0  0  0  0  0  0
   -2.4990  -48.3400    5.2980 H   0  0  0  0  0  0  0  0  0  0  0  0
   -0.5510  -47.1060    4.8220 H   0  0  0  0  0  0  0  0  0  0  0  0
    1.2630  -47.0390    4.8280 H   0  0  0  0  0  0  0  0  0  0  0  0
    0.2690  -45.2020    6.1610 H   0  0  0  0  0  0  0  0  0  0  0  0
    1.2660  -46.3200    7.1960 H   0  0  0  0  0  0  0  0  0  0  0  0
   -0.6990  -45.7590    8.4750 H   0  0  0  0  0  0  0  0  0  0  0  0
   -1.0490  -47.4580    7.8030 H   0  0  0  0  0  0  0  0  0  0  0  0
   -2.7070  -47.1310    9.2620 H   0  0  0  0  0  0  0  0  0  0  0  0
   -5.5020  -44.9840    7.5560 C   0  0  0  0  0  0  0  0  0  0  0  0
   -4.2400  -45.0950    6.9140 C   0  0  0  0  0  0  0  0  0  0  0  0
   -4.0440  -44.4860    5.6410 C   0  0  0  0  0  0  0  0  0  0  0  0
   -5.0570  -43.7780    5.0400 C   0  0  0  0  0  0  0  0  0  0  0  0
   -6.3210  -43.6650    5.6800 C   0  0  0  0  0  0  0  0  0  0  0  0
   -6.5410  -44.2490    6.9040 C   0  0  0  0  0  0  0  0  0  0  0  0
   -3.0830  -44.6140    5.1400 H   0  0  0  0  0  0  0  0  0  0  0  0
   -4.9090  -43.3030    4.0730 H   0  0  0  0  0  0  0  0  0  0  0  0
   -7.1130  -43.1120    5.1800 H   0  0  0  0  0  0  0  0  0  0  0  0
   -7.5140  -44.1720    7.3890 H   0  0  0  0  0  0  0  0  0  0  0  0
   -4.9060  -46.9370   10.3030 H   0  0  0  0  0  0  0  0  0  0  0  0
   -6.6900  -45.5420    9.2910 H   0  0  0  0  0  0  0  0  0  0  0  0
    1.7570  -51.7730    7.4140 C   0  0  0  0  0  0  0  0  0  0  0  0
    1.5210  -52.7600    6.9250 H   0  0  0  0  0  0  0  0  0  0  0  0
    2.8630  -51.6090    7.3480 H   0  0  0  0  0  0  0  0  0  0  0  0
    1.4670  -51.8570    8.4990 H   0  0  0  0  0  0  0  0  0  0  0  0
    1.0030  -50.6920    6.7660 N   0  0  0  0  0  0  0  0  0  0  0  0
  1  2  2  0  0  0  0
  2  3  1  0  0  0  0
  2  4  1  0  0  0  0
  4 11  2  0  0  0  0
  4 47  1  0  0  0  0
  5  6  2  0  0  0  0
  5 10  1  0  0  0  0
  5 47  1  0  0  0  0
  6  7  1  0  0  0  0
  6 20  1  0  0  0  0
  7  8  2  0  0  0  0
  7 21  1  0  0  0  0
  8  9  1  0  0  0  0
  8 22  1  0  0  0  0
  9 10  2  0  0  0  0
  9 23  1  0  0  0  0
 10 11  1  0  0  0  0
 11 12  1  0  0  0  0
 12 24  1  0  0  0  0
 12 25  1  0  0  0  0
 12 13  1  0  0  0  0
 13 14  1  0  0  0  0
 13 26  1  0  0  0  0
 13 27  1  0  0  0  0
 14 15  1  0  0  0  0
 14 28  1  0  0  0  0
 14 29  1  0  0  0  0
 15 16  1  0  0  0  0
 16 19  2  0  0  0  0
 16 32  1  0  0  0  0
 17 18  2  0  0  0  0
 17 31  1  0  0  0  0
 17 42  1  0  0  0  0
 18 19  1  0  0  0  0
 18 41  1  0  0  0  0
 19 30  1  0  0  0  0
 31 32  2  0  0  0  0
 31 36  1  0  0  0  0
 32 33  1  0  0  0  0
 33 34  2  0  0  0  0
 33 37  1  0  0  0  0
 34 35  1  0  0  0  0
 34 38  1  0  0  0  0
 35 36  2  0  0  0  0
 35 39  1  0  0  0  0
 36 40  1  0  0  0  0
 43 44  1  0  0  0  0
 43 45  1  0  0  0  0
 43 46  1  0  0  0  0
 43 47  1  0  0  0  0
M  CHG  1   3  -1
M  END
$$$$
