18638-1
 OpenBabel02232411163D
Structure written by MMmdl.
 52 53  0  0  0  0  0  0  0  0999 V2000
   24.5800   10.6050   30.6970 C   0  0  0  0  0  0  0  0  0  0  0  0
   23.2770   11.0450   30.0630 C   0  0  0  0  0  0  0  0  0  0  0  0
   22.2000   11.1340   31.0710 O   0  0  0  0  0  0  0  0  0  0  0  0
   21.5950   10.0020   31.4950 C   0  0  0  0  0  0  0  0  0  0  0  0
   22.0470    8.7980   31.0690 N   0  0  0  0  0  0  0  0  0  0  0  0
   21.3410    7.6750   31.4650 C   0  0  0  0  0  0  0  0  0  0  0  0
   20.2110    7.7410   32.2750 C   0  0  0  0  0  0  0  0  0  0  0  0
   19.7420    9.0070   32.7170 C   0  0  0  0  0  0  0  0  0  0  0  0
   18.5990    9.0760   33.4730 N   0  0  0  0  0  0  0  0  0  0  0  0
   20.4580   10.1880   32.3390 C   0  0  0  0  0  0  0  0  0  0  0  0
   20.0800   11.4950   32.7120 C   0  0  0  0  0  0  0  0  0  0  0  0
   19.8170   12.5910   32.9840 N   0  0  0  0  0  0  0  0  0  0  0  0
   21.8900    6.4820   30.9330 N   0  0  0  0  0  0  0  0  0  0  0  0
   21.2270    5.2380   30.8680 C   0  0  0  0  0  0  0  0  0  0  0  0
   20.1600    5.0330   31.4060 O   0  0  0  0  0  0  0  0  0  0  0  0
   21.9180    4.2130   29.9830 C   0  0  0  0  0  0  0  0  0  0  0  0
   23.2950    3.7980   30.4060 C   0  0  0  0  0  0  0  0  0  0  0  0
   24.4380    4.5170   29.9500 C   0  0  0  0  0  0  0  0  0  0  0  0
   24.1090    5.6610   29.2280 O   0  0  0  0  0  0  0  0  0  0  0  0
   25.1360    6.6830   29.1060 C   0  0  0  0  0  0  0  0  0  0  0  0
   25.7290    4.0430   30.1620 C   0  0  0  0  0  0  0  0  0  0  0  0
   25.9410    2.8630   30.8970 C   0  0  0  0  0  0  0  0  0  0  0  0
   27.5810    2.2460   31.0090 S   0  0  0  0  0  0  0  0  0  0  0  0
   28.5550    3.3440   30.7930 O   0  0  0  0  0  0  0  0  0  0  0  0
   27.7890    1.6170   32.3340 O   0  0  0  0  0  0  0  0  0  0  0  0
   27.6700    1.0790   29.7280 C   0  0  0  0  0  0  0  0  0  0  0  0
   24.8220    2.2080   31.4320 C   0  0  0  0  0  0  0  0  0  0  0  0
   23.5040    2.6560   31.1650 C   0  0  0  0  0  0  0  0  0  0  0  0
   25.1020    1.1410   32.2490 O   0  0  0  0  0  0  0  0  0  0  0  0
   24.0330    0.1930   32.5300 C   0  0  0  0  0  0  0  0  0  0  0  0
   24.5340    9.5350   31.0100 H   0  0  0  0  0  0  0  0  0  0  0  0
   24.8210   11.2300   31.5820 H   0  0  0  0  0  0  0  0  0  0  0  0
   25.4060   10.7050   29.9490 H   0  0  0  0  0  0  0  0  0  0  0  0
   23.3030   12.1120   29.7340 H   0  0  0  0  0  0  0  0  0  0  0  0
   22.9550   10.3650   29.2420 H   0  0  0  0  0  0  0  0  0  0  0  0
   19.6650    6.8380   32.5580 H   0  0  0  0  0  0  0  0  0  0  0  0
   18.0900    8.2160   33.7520 H   0  0  0  0  0  0  0  0  0  0  0  0
   18.2110    9.9710   33.7700 H   0  0  0  0  0  0  0  0  0  0  0  0
   22.7920    6.5860   30.4100 H   0  0  0  0  0  0  0  0  0  0  0  0
   21.2670    3.3000   29.9290 H   0  0  0  0  0  0  0  0  0  0  0  0
   21.9820    4.6620   28.9500 H   0  0  0  0  0  0  0  0  0  0  0  0
   24.5380    7.5610   28.7680 H   0  0  0  0  0  0  0  0  0  0  0  0
   25.6180    6.8760   30.0880 H   0  0  0  0  0  0  0  0  0  0  0  0
   25.8700    6.3650   28.3340 H   0  0  0  0  0  0  0  0  0  0  0  0
   26.5800    4.5850   29.7310 H   0  0  0  0  0  0  0  0  0  0  0  0
   27.5520    1.5550   28.7170 H   0  0  0  0  0  0  0  0  0  0  0  0
   28.6490    0.5330   29.7060 H   0  0  0  0  0  0  0  0  0  0  0  0
   26.8680    0.2990   29.7980 H   0  0  0  0  0  0  0  0  0  0  0  0
   22.6500    2.0910   31.5400 H   0  0  0  0  0  0  0  0  0  0  0  0
   23.6270   -0.2050   31.5760 H   0  0  0  0  0  0  0  0  0  0  0  0
   23.2530    0.6630   33.1670 H   0  0  0  0  0  0  0  0  0  0  0  0
   24.5810   -0.6010   33.0920 H   0  0  0  0  0  0  0  0  0  0  0  0
  1  2  1  0  0  0  0
  1 31  1  0  0  0  0
  1 32  1  0  0  0  0
  1 33  1  0  0  0  0
  2  3  1  0  0  0  0
  2 34  1  0  0  0  0
  2 35  1  0  0  0  0
  3  4  1  0  0  0  0
  4 10  2  0  0  0  0
  4  5  1  0  0  0  0
  5  6  2  0  0  0  0
  6  7  1  0  0  0  0
  6 13  1  0  0  0  0
  7  8  2  0  0  0  0
  7 36  1  0  0  0  0
  8  9  1  0  0  0  0
  8 10  1  0  0  0  0
  9 37  1  0  0  0  0
  9 38  1  0  0  0  0
 10 11  1  0  0  0  0
 11 12  3  0  0  0  0
 13 14  1  0  0  0  0
 13 39  1  0  0  0  0
 14 15  2  0  0  0  0
 14 16  1  0  0  0  0
 16 17  1  0  0  0  0
 16 40  1  0  0  0  0
 16 41  1  0  0  0  0
 17 28  2  0  0  0  0
 17 18  1  0  0  0  0
 18 19  1  0  0  0  0
 18 21  2  0  0  0  0
 19 20  1  0  0  0  0
 20 42  1  0  0  0  0
 20 43  1  0  0  0  0
 20 44  1  0  0  0  0
 21 22  1  0  0  0  0
 21 45  1  0  0  0  0
 22 23  1  0  0  0  0
 22 27  2  0  0  0  0
 23 24  2  0  0  0  0
 23 25  2  0  0  0  0
 23 26  1  0  0  0  0
 26 46  1  0  0  0  0
 26 47  1  0  0  0  0
 26 48  1  0  0  0  0
 27 28  1  0  0  0  0
 27 29  1  0  0  0  0
 28 49  1  0  0  0  0
 29 30  1  0  0  0  0
 30 50  1  0  0  0  0
 30 51  1  0  0  0  0
 30 52  1  0  0  0  0
M  END
$$$$
