p38a_3fln
 OpenBabel02232411163D
Structure written by MMmdl.
 46 49  0  0  0  0  0  0  0  0999 V2000
   31.7750   39.0770   26.2240 C   0  0  0  0  0  0  0  0  0  0  0  0
   31.2980   38.4350   27.5320 C   0  0  0  0  0  0  0  0  0  0  0  0
   33.3780   38.9520   28.6490 C   0  0  0  0  0  0  0  0  0  0  0  0
   33.9470   39.6310   27.3970 C   0  0  0  0  0  0  0  0  0  0  0  0
   38.2830   36.5490   17.1300 C   0  0  0  0  0  0  0  0  0  0  0  0
   31.9360   39.0270   28.6860 O   0  0  0  0  0  0  0  0  0  0  0  0
   34.5170   35.0820   21.1370 C   0  0  0  0  0  0  0  0  0  0  0  0
   37.4780   36.0840   18.1650 C   0  0  0  0  0  0  0  0  0  0  0  0
   33.9970   39.1420   23.7180 C   0  0  0  0  0  0  0  0  0  0  0  0
   33.3160   39.0000   26.1380 C   0  0  0  0  0  0  0  0  0  0  0  0
   34.6130   37.9610   21.3040 C   0  0  0  0  0  0  0  0  0  0  0  0
   35.0060   37.3100   20.0840 C   0  0  0  0  0  0  0  0  0  0  0  0
   37.6570   36.7310   15.8890 C   0  0  0  0  0  0  0  0  0  0  0  0
   36.3100   36.4460   15.6550 C   0  0  0  0  0  0  0  0  0  0  0  0
   35.5260   35.9630   16.7080 C   0  0  0  0  0  0  0  0  0  0  0  0
   34.2380   37.1810   22.4380 C   0  0  0  0  0  0  0  0  0  0  0  0
   34.5930   39.3730   21.4610 C   0  0  0  0  0  0  0  0  0  0  0  0
   34.9900   35.9580   20.0340 C   0  0  0  0  0  0  0  0  0  0  0  0
   36.1160   35.7760   17.9610 C   0  0  0  0  0  0  0  0  0  0  0  0
   33.7640   34.9980   23.5460 C   0  0  0  0  0  0  0  0  0  0  0  0
   37.9870   35.9290   19.3810 F   0  0  0  0  0  0  0  0  0  0  0  0
   38.3750   37.2400   14.8900 F   0  0  0  0  0  0  0  0  0  0  0  0
   35.3710   35.1460   18.9660 O   0  0  0  0  0  0  0  0  0  0  0  0
   34.2990   39.9760   22.6220 N   0  0  0  0  0  0  0  0  0  0  0  0
   34.4020   33.8770   21.0800 O   0  0  0  0  0  0  0  0  0  0  0  0
   34.1820   35.7800   22.3490 N   0  0  0  0  0  0  0  0  0  0  0  0
   33.9220   37.7640   23.6390 N   0  0  0  0  0  0  0  0  0  0  0  0
   33.8160   39.7420   24.9420 N   0  0  0  0  0  0  0  0  0  0  0  0
   31.3140   38.5370   25.3630 H   0  0  0  0  0  0  0  0  0  0  0  0
   31.4550   40.1440   26.1840 H   0  0  0  0  0  0  0  0  0  0  0  0
   30.2230   38.6500   27.7260 H   0  0  0  0  0  0  0  0  0  0  0  0
   31.4960   37.3380   27.5320 H   0  0  0  0  0  0  0  0  0  0  0  0
   33.6860   37.8820   28.6960 H   0  0  0  0  0  0  0  0  0  0  0  0
   33.6700   39.5010   29.5730 H   0  0  0  0  0  0  0  0  0  0  0  0
   33.7280   40.7270   27.4270 H   0  0  0  0  0  0  0  0  0  0  0  0
   35.0570   39.5010   27.3750 H   0  0  0  0  0  0  0  0  0  0  0  0
   39.3370   36.7980   17.2850 H   0  0  0  0  0  0  0  0  0  0  0  0
   33.6350   37.9220   26.0630 H   0  0  0  0  0  0  0  0  0  0  0  0
   35.3170   37.9330   19.2440 H   0  0  0  0  0  0  0  0  0  0  0  0
   35.8570   36.6100   14.6750 H   0  0  0  0  0  0  0  0  0  0  0  0
   34.4640   35.7530   16.5460 H   0  0  0  0  0  0  0  0  0  0  0  0
   34.8190   40.0250   20.6000 H   0  0  0  0  0  0  0  0  0  0  0  0
   34.4230   35.2500   24.4220 H   0  0  0  0  0  0  0  0  0  0  0  0
   32.7040   35.2530   23.8180 H   0  0  0  0  0  0  0  0  0  0  0  0
   33.8370   33.8990   23.3380 H   0  0  0  0  0  0  0  0  0  0  0  0
   33.7660   40.7780   25.0060 H   0  0  0  0  0  0  0  0  0  0  0  0
  1  2  1  0  0  0  0
  1 10  1  0  0  0  0
  1 29  1  0  0  0  0
  1 30  1  0  0  0  0
  2  6  1  0  0  0  0
  2 31  1  0  0  0  0
  2 32  1  0  0  0  0
  3  4  1  0  0  0  0
  3  6  1  0  0  0  0
  3 33  1  0  0  0  0
  3 34  1  0  0  0  0
  4 10  1  0  0  0  0
  4 35  1  0  0  0  0
  4 36  1  0  0  0  0
  5  8  2  0  0  0  0
  5 13  1  0  0  0  0
  5 37  1  0  0  0  0
  7 18  1  0  0  0  0
  7 25  2  0  0  0  0
  7 26  1  0  0  0  0
  8 19  1  0  0  0  0
  8 21  1  0  0  0  0
  9 24  2  0  0  0  0
  9 27  1  0  0  0  0
  9 28  1  0  0  0  0
 10 28  1  0  0  0  0
 10 38  1  0  0  0  0
 11 12  1  0  0  0  0
 11 16  1  0  0  0  0
 11 17  2  0  0  0  0
 12 18  2  0  0  0  0
 12 39  1  0  0  0  0
 13 14  2  0  0  0  0
 13 22  1  0  0  0  0
 14 15  1  0  0  0  0
 14 40  1  0  0  0  0
 15 19  2  0  0  0  0
 15 41  1  0  0  0  0
 16 26  1  0  0  0  0
 16 27  2  0  0  0  0
 17 24  1  0  0  0  0
 17 42  1  0  0  0  0
 18 23  1  0  0  0  0
 19 23  1  0  0  0  0
 20 26  1  0  0  0  0
 20 43  1  0  0  0  0
 20 44  1  0  0  0  0
 20 45  1  0  0  0  0
 28 46  1  0  0  0  0
M  END
$$$$
