p38a_2e
 OpenBabel02232411163D
Structure written by MMmdl.
 46 49  0  0  0  0  0  0  0  0999 V2000
   34.1700   38.3890   26.8900 C   0  0  0  0  0  0  0  0  0  0  0  0
   33.5590   37.9300   28.2200 C   0  0  0  0  0  0  0  0  0  0  0  0
   31.3150   38.4030   27.4550 C   0  0  0  0  0  0  0  0  0  0  0  0
   31.8200   38.8910   26.0900 C   0  0  0  0  0  0  0  0  0  0  0  0
   38.2510   36.4510   17.2990 C   0  0  0  0  0  0  0  0  0  0  0  0
   32.2110   37.4350   28.0460 O   0  0  0  0  0  0  0  0  0  0  0  0
   34.5030   35.1220   21.3550 C   0  0  0  0  0  0  0  0  0  0  0  0
   37.4790   36.0170   18.3780 C   0  0  0  0  0  0  0  0  0  0  0  0
   34.0210   39.2720   23.7980 C   0  0  0  0  0  0  0  0  0  0  0  0
   33.2520   39.4440   26.2450 C   0  0  0  0  0  0  0  0  0  0  0  0
   34.6690   37.9940   21.4390 C   0  0  0  0  0  0  0  0  0  0  0  0
   35.0650   37.3000   20.2450 C   0  0  0  0  0  0  0  0  0  0  0  0
   37.6340   36.5700   16.0480 C   0  0  0  0  0  0  0  0  0  0  0  0
   36.2950   36.2390   15.8180 C   0  0  0  0  0  0  0  0  0  0  0  0
   35.5260   35.7920   16.8950 C   0  0  0  0  0  0  0  0  0  0  0  0
   34.2730   37.2640   22.5980 C   0  0  0  0  0  0  0  0  0  0  0  0
   34.6590   39.4110   21.5390 C   0  0  0  0  0  0  0  0  0  0  0  0
   35.0120   35.9480   20.2280 C   0  0  0  0  0  0  0  0  0  0  0  0
   36.1340   35.6890   18.1520 C   0  0  0  0  0  0  0  0  0  0  0  0
   33.8030   35.1170   23.7800 C   0  0  0  0  0  0  0  0  0  0  0  0
   37.9130   35.9670   19.3780 H   0  0  0  0  0  0  0  0  0  0  0  0
   38.3420   37.0680   15.0340 F   0  0  0  0  0  0  0  0  0  0  0  0
   35.3590   35.1070   19.1760 O   0  0  0  0  0  0  0  0  0  0  0  0
   34.3480   40.0590   22.6700 N   0  0  0  0  0  0  0  0  0  0  0  0
   34.3290   33.9230   21.3290 O   0  0  0  0  0  0  0  0  0  0  0  0
   34.1990   35.8630   22.5520 N   0  0  0  0  0  0  0  0  0  0  0  0
   33.9470   37.8950   23.7750 N   0  0  0  0  0  0  0  0  0  0  0  0
   33.8060   39.9710   24.9630 N   0  0  0  0  0  0  0  0  0  0  0  0
   35.1810   38.8270   27.0750 H   0  0  0  0  0  0  0  0  0  0  0  0
   34.2890   37.5100   26.2100 H   0  0  0  0  0  0  0  0  0  0  0  0
   34.0900   37.0340   28.6190 H   0  0  0  0  0  0  0  0  0  0  0  0
   33.5460   38.7590   28.9640 H   0  0  0  0  0  0  0  0  0  0  0  0
   31.1920   39.2530   28.1640 H   0  0  0  0  0  0  0  0  0  0  0  0
   30.3730   37.8170   27.3520 H   0  0  0  0  0  0  0  0  0  0  0  0
   31.8130   38.0410   25.3660 H   0  0  0  0  0  0  0  0  0  0  0  0
   31.1440   39.6890   25.7030 H   0  0  0  0  0  0  0  0  0  0  0  0
   39.3000   36.7280   17.4390 H   0  0  0  0  0  0  0  0  0  0  0  0
   33.2180   40.3540   26.9200 H   0  0  0  0  0  0  0  0  0  0  0  0
   35.4070   37.8920   19.3920 H   0  0  0  0  0  0  0  0  0  0  0  0
   35.8430   36.3460   14.8300 H   0  0  0  0  0  0  0  0  0  0  0  0
   34.4680   35.5560   16.7540 H   0  0  0  0  0  0  0  0  0  0  0  0
   34.9040   40.0250   20.6570 H   0  0  0  0  0  0  0  0  0  0  0  0
   34.5520   35.3060   24.5950 H   0  0  0  0  0  0  0  0  0  0  0  0
   32.7960   35.4670   24.1320 H   0  0  0  0  0  0  0  0  0  0  0  0
   33.7580   34.0170   23.5680 H   0  0  0  0  0  0  0  0  0  0  0  0
   33.8230   41.0100   24.9270 H   0  0  0  0  0  0  0  0  0  0  0  0
  1  2  1  0  0  0  0
  1 10  1  0  0  0  0
  1 29  1  0  0  0  0
  1 30  1  0  0  0  0
  2  6  1  0  0  0  0
  2 31  1  0  0  0  0
  2 32  1  0  0  0  0
  3  4  1  0  0  0  0
  3  6  1  0  0  0  0
  3 33  1  0  0  0  0
  3 34  1  0  0  0  0
  4 10  1  0  0  0  0
  4 35  1  0  0  0  0
  4 36  1  0  0  0  0
  5  8  2  0  0  0  0
  5 13  1  0  0  0  0
  5 37  1  0  0  0  0
  7 18  1  0  0  0  0
  7 25  2  0  0  0  0
  7 26  1  0  0  0  0
  8 19  1  0  0  0  0
  8 21  1  0  0  0  0
  9 24  2  0  0  0  0
  9 27  1  0  0  0  0
  9 28  1  0  0  0  0
 10 28  1  0  0  0  0
 10 38  1  0  0  0  0
 11 12  1  0  0  0  0
 11 16  1  0  0  0  0
 11 17  2  0  0  0  0
 12 18  2  0  0  0  0
 12 39  1  0  0  0  0
 13 14  2  0  0  0  0
 13 22  1  0  0  0  0
 14 15  1  0  0  0  0
 14 40  1  0  0  0  0
 15 19  2  0  0  0  0
 15 41  1  0  0  0  0
 16 26  1  0  0  0  0
 16 27  2  0  0  0  0
 17 24  1  0  0  0  0
 17 42  1  0  0  0  0
 18 23  1  0  0  0  0
 19 23  1  0  0  0  0
 20 26  1  0  0  0  0
 20 43  1  0  0  0  0
 20 44  1  0  0  0  0
 20 45  1  0  0  0  0
 28 46  1  0  0  0  0
M  END
$$$$
