CAT-4d
 OpenBabel02232411143D
Structure written by MMmdl.
 53 56  0  0  1  0  0  0  0  0999 V2000
   15.4330    4.7080    2.1790 C   0  0  0  0  0  0  0  0  0  0  0  0
   14.9220    4.5540    0.7600 C   0  0  0  0  0  0  0  0  0  0  0  0
   15.1750    3.1390    0.4360 O   0  0  0  0  0  0  0  0  0  0  0  0
   14.8160    2.6990   -0.8120 C   0  0  0  0  0  0  0  0  0  0  0  0
   14.2420    3.4900   -1.8200 C   0  0  0  0  0  0  0  0  0  0  0  0
   13.9000    2.8830   -3.0300 C   0  0  0  0  0  0  0  0  0  0  0  0
   14.0990    1.5150   -3.2280 C   0  0  0  0  0  0  0  0  0  0  0  0
   14.6770    0.7270   -2.2150 C   0  0  0  0  0  0  0  0  0  0  0  0
   14.8270   -0.7350   -2.4170 C   0  0  0  0  0  0  0  0  0  0  0  0
   15.0700   -1.2620   -3.7010 C   0  0  0  0  0  0  0  0  0  0  0  0
   15.0970   -2.6410   -3.9010 C   0  0  0  0  0  0  0  0  0  0  0  0
   14.9360   -3.5210   -2.8260 C   0  0  0  0  0  0  0  0  0  0  0  0
   14.7410   -3.0110   -1.5430 C   0  0  0  0  0  0  0  0  0  0  0  0
   14.5040   -3.9630   -0.3850 C   0  0  1  0  0  0  0  0  0  0  0  0
   15.0850   -5.3620   -0.4210 C   0  0  0  0  0  0  0  0  0  0  0  0
   14.3330   -6.4710   -0.0020 C   0  0  0  0  0  0  0  0  0  0  0  0
   14.9340   -7.7290    0.1010 C   0  0  0  0  0  0  0  0  0  0  0  0
   16.2890   -7.8920   -0.2100 C   0  0  0  0  0  0  0  0  0  0  0  0
   17.0460   -6.7840   -0.6080 C   0  0  0  0  0  0  0  0  0  0  0  0
   16.4480   -5.5240   -0.7190 C   0  0  0  0  0  0  0  0  0  0  0  0
   15.0240   -3.3300    0.8790 N   0  3  0  0  0  0  0  0  0  0  0  0
   14.0170   -3.1340    1.8020 C   0  0  0  0  0  0  0  0  0  0  0  0
   14.2550   -2.7710    3.0900 N   0  0  0  0  0  0  0  0  0  0  0  0
   12.7790   -3.4510    1.2310 N   0  0  0  0  0  0  0  0  0  0  0  0
   11.5160   -3.2980    1.9810 C   0  0  0  0  0  0  0  0  0  0  0  0
   12.9530   -3.9560   -0.1400 C   0  0  0  0  0  0  0  0  0  0  0  0
   12.0330   -4.2170   -0.8460 O   0  0  0  0  0  0  0  0  0  0  0  0
   14.6700   -1.6210   -1.3420 C   0  0  0  0  0  0  0  0  0  0  0  0
   15.0620    1.3250   -1.0110 C   0  0  0  0  0  0  0  0  0  0  0  0
   15.5080    5.7910    2.4400 H   0  0  0  0  0  0  0  0  0  0  0  0
   14.7670    4.2060    2.9160 H   0  0  0  0  0  0  0  0  0  0  0  0
   16.4410    4.2310    2.2780 H   0  0  0  0  0  0  0  0  0  0  0  0
   13.8260    4.7190    0.6850 H   0  0  0  0  0  0  0  0  0  0  0  0
   15.5000    5.1710    0.0370 H   0  0  0  0  0  0  0  0  0  0  0  0
   14.0500    4.5560   -1.6910 H   0  0  0  0  0  0  0  0  0  0  0  0
   13.4610    3.4880   -3.8330 H   0  0  0  0  0  0  0  0  0  0  0  0
   13.7900    1.0670   -4.1760 H   0  0  0  0  0  0  0  0  0  0  0  0
   15.2380   -0.5940   -4.5540 H   0  0  0  0  0  0  0  0  0  0  0  0
   15.2320   -3.0450   -4.9050 H   0  0  0  0  0  0  0  0  0  0  0  0
   14.9530   -4.5960   -2.9760 H   0  0  0  0  0  0  0  0  0  0  0  0
   13.2800   -6.3730    0.2650 H   0  0  0  0  0  0  0  0  0  0  0  0
   14.3370   -8.5860    0.4310 H   0  0  0  0  0  0  0  0  0  0  0  0
   16.7490   -8.8830   -0.1250 H   0  0  0  0  0  0  0  0  0  0  0  0
   18.1240   -6.8840   -0.7630 H   0  0  0  0  0  0  0  0  0  0  0  0
   17.0400   -4.6510   -1.0040 H   0  0  0  0  0  0  0  0  0  0  0  0
   16.0350   -3.3480    1.1630 H   0  0  0  0  0  0  0  0  0  0  0  0
   13.5580   -2.2160    3.6420 H   0  0  0  0  0  0  0  0  0  0  0  0
   10.6740   -3.7570    1.3980 H   0  0  0  0  0  0  0  0  0  0  0  0
   11.5980   -3.8110    2.9780 H   0  0  0  0  0  0  0  0  0  0  0  0
   11.3140   -2.2070    2.1470 H   0  0  0  0  0  0  0  0  0  0  0  0
   14.4900   -1.2330   -0.3380 H   0  0  0  0  0  0  0  0  0  0  0  0
   15.5360    0.7480   -0.2190 H   0  0  0  0  0  0  0  0  0  0  0  0
   15.2470   -2.5420    3.3730 H   0  0  0  0  0  0  0  0  0  0  0  0
  1  2  1  0  0  0  0
  1 30  1  0  0  0  0
  1 31  1  0  0  0  0
  1 32  1  0  0  0  0
  2  3  1  0  0  0  0
  2 33  1  0  0  0  0
  2 34  1  0  0  0  0
  3  4  1  0  0  0  0
  4  5  2  0  0  0  0
  4 29  1  0  0  0  0
  5  6  1  0  0  0  0
  5 35  1  0  0  0  0
  6  7  2  0  0  0  0
  6 36  1  0  0  0  0
  7  8  1  0  0  0  0
  7 37  1  0  0  0  0
  8  9  1  0  0  0  0
  8 29  2  0  0  0  0
  9 10  2  0  0  0  0
  9 28  1  0  0  0  0
 10 11  1  0  0  0  0
 10 38  1  0  0  0  0
 11 12  2  0  0  0  0
 11 39  1  0  0  0  0
 12 13  1  0  0  0  0
 12 40  1  0  0  0  0
 13 28  2  0  0  0  0
 14 13  1  6  0  0  0
 14 15  1  0  0  0  0
 14 21  1  0  0  0  0
 14 26  1  0  0  0  0
 15 16  2  0  0  0  0
 15 20  1  0  0  0  0
 16 17  1  0  0  0  0
 16 41  1  0  0  0  0
 17 18  2  0  0  0  0
 17 42  1  0  0  0  0
 18 19  1  0  0  0  0
 18 43  1  0  0  0  0
 19 20  2  0  0  0  0
 19 44  1  0  0  0  0
 20 45  1  0  0  0  0
 21 22  2  0  0  0  0
 21 46  1  0  0  0  0
 22 23  1  0  0  0  0
 22 24  1  0  0  0  0
 23 47  1  0  0  0  0
 23 53  1  0  0  0  0
 24 25  1  0  0  0  0
 24 26  1  0  0  0  0
 25 48  1  0  0  0  0
 25 49  1  0  0  0  0
 25 50  1  0  0  0  0
 26 27  2  0  0  0  0
 28 51  1  0  0  0  0
 29 52  1  0  0  0  0
M  CHG  1  21   1
M  END
$$$$
