CAT-4n
 OpenBabel02232411143D
Structure written by MMmdl.
 46 49  0  0  1  0  0  0  0  0999 V2000
   11.5570   -2.4740    1.3810 C   0  0  0  0  0  0  0  0  0  0  0  0
   12.9000   -2.6100    0.7800 N   0  0  0  0  0  0  0  0  0  0  0  0
   14.0910   -2.5040    1.4960 C   0  0  0  0  0  0  0  0  0  0  0  0
   14.2520   -2.4820    2.8450 N   0  0  0  0  0  0  0  0  0  0  0  0
   15.1740   -2.5060    0.6150 N   0  3  0  0  0  0  0  0  0  0  0  0
   14.7290   -3.0170   -0.7460 C   0  0  2  0  0  0  0  0  0  0  0  0
   15.1080   -4.4860   -0.7450 C   0  0  0  0  0  0  0  0  0  0  0  0
   16.4690   -4.8280   -0.7660 C   0  0  0  0  0  0  0  0  0  0  0  0
   16.8660   -6.1460   -0.5320 C   0  0  0  0  0  0  0  0  0  0  0  0
   15.9120   -7.1330   -0.2610 C   0  0  0  0  0  0  0  0  0  0  0  0
   14.5540   -6.7940   -0.2330 C   0  0  0  0  0  0  0  0  0  0  0  0
   14.1500   -5.4820   -0.4930 C   0  0  0  0  0  0  0  0  0  0  0  0
   15.2400   -2.0650   -1.8050 C   0  0  0  0  0  0  0  0  0  0  0  0
   15.8820   -2.5030   -2.9650 C   0  0  0  0  0  0  0  0  0  0  0  0
   16.3030   -1.5580   -3.9100 C   0  0  0  0  0  0  0  0  0  0  0  0
   16.0810   -0.1950   -3.7180 C   0  0  0  0  0  0  0  0  0  0  0  0
   15.4210    0.2540   -2.5600 C   0  0  0  0  0  0  0  0  0  0  0  0
   15.1280    1.6850   -2.3470 C   0  0  0  0  0  0  0  0  0  0  0  0
   14.6420    2.4950   -3.4010 C   0  0  0  0  0  0  0  0  0  0  0  0
   14.2600    3.7830   -3.2150 N   0  0  0  0  0  0  0  0  0  0  0  0
   14.3400    4.3210   -1.9730 C   0  0  0  0  0  0  0  0  0  0  0  0
   14.8560    3.5900   -0.8760 C   0  0  0  0  0  0  0  0  0  0  0  0
   14.9200    4.1740    0.4260 C   0  0  0  0  0  0  0  0  0  0  0  0
   14.9570    4.6470    1.4810 N   0  0  0  0  0  0  0  0  0  0  0  0
   15.2710    2.2650   -1.0790 C   0  0  0  0  0  0  0  0  0  0  0  0
   15.0070   -0.6900   -1.6110 C   0  0  0  0  0  0  0  0  0  0  0  0
   13.1750   -2.8410   -0.6550 C   0  0  0  0  0  0  0  0  0  0  0  0
   12.3160   -2.8540   -1.4740 O   0  0  0  0  0  0  0  0  0  0  0  0
   11.1990   -1.4180    1.2560 H   0  0  0  0  0  0  0  0  0  0  0  0
   10.8510   -3.1790    0.8640 H   0  0  0  0  0  0  0  0  0  0  0  0
   11.5850   -2.7370    2.4710 H   0  0  0  0  0  0  0  0  0  0  0  0
   15.2310   -2.3720    3.2330 H   0  0  0  0  0  0  0  0  0  0  0  0
   16.1240   -2.7800    0.9840 H   0  0  0  0  0  0  0  0  0  0  0  0
   17.2170   -4.0450   -0.9130 H   0  0  0  0  0  0  0  0  0  0  0  0
   17.9340   -6.3800   -0.4980 H   0  0  0  0  0  0  0  0  0  0  0  0
   16.2130   -8.1660   -0.0540 H   0  0  0  0  0  0  0  0  0  0  0  0
   13.7990   -7.5540   -0.0070 H   0  0  0  0  0  0  0  0  0  0  0  0
   13.0830   -5.2570   -0.4720 H   0  0  0  0  0  0  0  0  0  0  0  0
   16.0570   -3.5670   -3.1330 H   0  0  0  0  0  0  0  0  0  0  0  0
   16.8180   -1.8820   -4.8140 H   0  0  0  0  0  0  0  0  0  0  0  0
   16.4290    0.5190   -4.4720 H   0  0  0  0  0  0  0  0  0  0  0  0
   14.5450    2.0920   -4.4230 H   0  0  0  0  0  0  0  0  0  0  0  0
   13.9750    5.3540   -1.8520 H   0  0  0  0  0  0  0  0  0  0  0  0
   15.6960    1.6830   -0.2580 H   0  0  0  0  0  0  0  0  0  0  0  0
   14.5000   -0.3580   -0.7040 H   0  0  0  0  0  0  0  0  0  0  0  0
   13.5270   -2.0710    3.4810 H   0  0  0  0  0  0  0  0  0  0  0  0
  1  2  1  0  0  0  0
  1 29  1  0  0  0  0
  1 30  1  0  0  0  0
  1 31  1  0  0  0  0
  2  3  1  0  0  0  0
  2 27  1  0  0  0  0
  3  4  1  0  0  0  0
  3  5  2  0  0  0  0
  4 32  1  0  0  0  0
  4 46  1  0  0  0  0
  5  6  1  0  0  0  0
  5 33  1  0  0  0  0
  6  7  1  6  0  0  0
  6 13  1  0  0  0  0
  6 27  1  0  0  0  0
  7  8  2  0  0  0  0
  7 12  1  0  0  0  0
  8  9  1  0  0  0  0
  8 34  1  0  0  0  0
  9 10  2  0  0  0  0
  9 35  1  0  0  0  0
 10 11  1  0  0  0  0
 10 36  1  0  0  0  0
 11 12  2  0  0  0  0
 11 37  1  0  0  0  0
 12 38  1  0  0  0  0
 13 14  2  0  0  0  0
 13 26  1  0  0  0  0
 14 15  1  0  0  0  0
 14 39  1  0  0  0  0
 15 16  2  0  0  0  0
 15 40  1  0  0  0  0
 16 17  1  0  0  0  0
 16 41  1  0  0  0  0
 17 18  1  0  0  0  0
 17 26  2  0  0  0  0
 18 19  2  0  0  0  0
 18 25  1  0  0  0  0
 19 20  1  0  0  0  0
 19 42  1  0  0  0  0
 20 21  2  0  0  0  0
 21 22  1  0  0  0  0
 21 43  1  0  0  0  0
 22 23  1  0  0  0  0
 22 25  2  0  0  0  0
 23 24  3  0  0  0  0
 25 44  1  0  0  0  0
 26 45  1  0  0  0  0
 27 28  2  0  0  0  0
M  CHG  1   5   1
M  END
$$$$
