18639-1
 OpenBabel02232411163D
Structure written by MMmdl.
 48 49  0  0  0  0  0  0  0  0999 V2000
   23.8880   12.5980   30.3440 C   0  0  0  0  0  0  0  0  0  0  0  0
   23.4230   11.1580   30.4480 C   0  0  0  0  0  0  0  0  0  0  0  0
   22.1730   11.2640   31.2450 O   0  0  0  0  0  0  0  0  0  0  0  0
   21.5420   10.1250   31.5990 C   0  0  0  0  0  0  0  0  0  0  0  0
   22.0210    8.9370   31.1580 N   0  0  0  0  0  0  0  0  0  0  0  0
   21.2970    7.7990   31.4810 C   0  0  0  0  0  0  0  0  0  0  0  0
   20.1420    7.8360   32.2550 C   0  0  0  0  0  0  0  0  0  0  0  0
   19.6560    9.0850   32.7270 C   0  0  0  0  0  0  0  0  0  0  0  0
   18.5100    9.1220   33.4790 N   0  0  0  0  0  0  0  0  0  0  0  0
   20.3660   10.2820   32.3910 C   0  0  0  0  0  0  0  0  0  0  0  0
   19.9550   11.5810   32.7590 C   0  0  0  0  0  0  0  0  0  0  0  0
   19.6660   12.6730   33.0210 N   0  0  0  0  0  0  0  0  0  0  0  0
   21.8690    6.6310   30.9230 N   0  0  0  0  0  0  0  0  0  0  0  0
   21.2640    5.3600   30.8430 C   0  0  0  0  0  0  0  0  0  0  0  0
   20.1720    5.1190   31.3130 O   0  0  0  0  0  0  0  0  0  0  0  0
   22.0750    4.3480   30.0420 C   0  0  0  0  0  0  0  0  0  0  0  0
   23.4280    4.0440   30.6140 C   0  0  0  0  0  0  0  0  0  0  0  0
   24.5450    4.8830   30.3110 C   0  0  0  0  0  0  0  0  0  0  0  0
   24.2180    5.9340   29.4650 O   0  0  0  0  0  0  0  0  0  0  0  0
   25.2020    6.9930   29.2930 C   0  0  0  0  0  0  0  0  0  0  0  0
   25.8130    4.6170   30.8040 C   0  0  0  0  0  0  0  0  0  0  0  0
   26.0090    3.4960   31.6380 C   0  0  0  0  0  0  0  0  0  0  0  0
   27.3490    3.2140   32.1620 N   0  3  0  0  0  0  0  0  0  0  0  0
   27.4520    2.4270   33.0900 O   0  5  0  0  0  0  0  0  0  0  0  0
   28.3090    3.7720   31.6430 O   0  0  0  0  0  0  0  0  0  0  0  0
   24.9170    2.6500   31.9410 C   0  0  0  0  0  0  0  0  0  0  0  0
   23.6340    2.9310   31.4130 C   0  0  0  0  0  0  0  0  0  0  0  0
   25.2320    1.6040   32.7550 O   0  0  0  0  0  0  0  0  0  0  0  0
   24.2150    0.5810   32.9700 C   0  0  0  0  0  0  0  0  0  0  0  0
   24.7870   12.6350   29.6790 H   0  0  0  0  0  0  0  0  0  0  0  0
   23.0960   13.2420   29.8940 H   0  0  0  0  0  0  0  0  0  0  0  0
   24.1630   13.0100   31.3410 H   0  0  0  0  0  0  0  0  0  0  0  0
   23.1530   10.7240   29.4590 H   0  0  0  0  0  0  0  0  0  0  0  0
   24.1400   10.5140   31.0050 H   0  0  0  0  0  0  0  0  0  0  0  0
   19.5910    6.9220   32.4880 H   0  0  0  0  0  0  0  0  0  0  0  0
   18.0080    8.2490   33.7310 H   0  0  0  0  0  0  0  0  0  0  0  0
   18.1050   10.0060   33.7880 H   0  0  0  0  0  0  0  0  0  0  0  0
   22.7910    6.7690   30.4380 H   0  0  0  0  0  0  0  0  0  0  0  0
   21.4790    3.3990   29.9680 H   0  0  0  0  0  0  0  0  0  0  0  0
   22.2080    4.7650   29.0030 H   0  0  0  0  0  0  0  0  0  0  0  0
   25.5230    7.3920   30.2790 H   0  0  0  0  0  0  0  0  0  0  0  0
   26.0520    6.6070   28.6910 H   0  0  0  0  0  0  0  0  0  0  0  0
   24.6090    7.7480   28.7270 H   0  0  0  0  0  0  0  0  0  0  0  0
   26.6690    5.2520   30.5490 H   0  0  0  0  0  0  0  0  0  0  0  0
   22.8010    2.2590   31.6350 H   0  0  0  0  0  0  0  0  0  0  0  0
   24.7760   -0.1610   33.5870 H   0  0  0  0  0  0  0  0  0  0  0  0
   23.3590    1.0050   33.5370 H   0  0  0  0  0  0  0  0  0  0  0  0
   23.9070    0.1400   31.9970 H   0  0  0  0  0  0  0  0  0  0  0  0
  1  2  1  0  0  0  0
  1 30  1  0  0  0  0
  1 31  1  0  0  0  0
  1 32  1  0  0  0  0
  2  3  1  0  0  0  0
  2 33  1  0  0  0  0
  2 34  1  0  0  0  0
  3  4  1  0  0  0  0
  4 10  2  0  0  0  0
  4  5  1  0  0  0  0
  5  6  2  0  0  0  0
  6  7  1  0  0  0  0
  6 13  1  0  0  0  0
  7  8  2  0  0  0  0
  7 35  1  0  0  0  0
  8  9  1  0  0  0  0
  8 10  1  0  0  0  0
  9 36  1  0  0  0  0
  9 37  1  0  0  0  0
 10 11  1  0  0  0  0
 11 12  3  0  0  0  0
 13 14  1  0  0  0  0
 13 38  1  0  0  0  0
 14 15  2  0  0  0  0
 14 16  1  0  0  0  0
 16 17  1  0  0  0  0
 16 39  1  0  0  0  0
 16 40  1  0  0  0  0
 17 27  2  0  0  0  0
 17 18  1  0  0  0  0
 18 19  1  0  0  0  0
 18 21  2  0  0  0  0
 19 20  1  0  0  0  0
 20 41  1  0  0  0  0
 20 42  1  0  0  0  0
 20 43  1  0  0  0  0
 21 22  1  0  0  0  0
 21 44  1  0  0  0  0
 22 23  1  0  0  0  0
 22 26  2  0  0  0  0
 23 24  1  0  0  0  0
 23 25  2  0  0  0  0
 26 27  1  0  0  0  0
 26 28  1  0  0  0  0
 27 45  1  0  0  0  0
 28 29  1  0  0  0  0
 29 46  1  0  0  0  0
 29 47  1  0  0  0  0
 29 48  1  0  0  0  0
M  CHG  2  23   1  24  -1
M  END
$$$$
