18634-1
 OpenBabel02232411163D
Structure written by MMmdl.
 46 47  0  0  0  0  0  0  0  0999 V2000
   23.8220   12.6900   30.3420 C   0  0  0  0  0  0  0  0  0  0  0  0
   23.3870   11.2410   30.4570 C   0  0  0  0  0  0  0  0  0  0  0  0
   22.1360   11.3280   31.2520 O   0  0  0  0  0  0  0  0  0  0  0  0
   21.5040   10.1840   31.5900 C   0  0  0  0  0  0  0  0  0  0  0  0
   21.9850    8.9990   31.1460 N   0  0  0  0  0  0  0  0  0  0  0  0
   21.2510    7.8590   31.4490 C   0  0  0  0  0  0  0  0  0  0  0  0
   20.0940    7.8950   32.2230 C   0  0  0  0  0  0  0  0  0  0  0  0
   19.6110    9.1410   32.7020 C   0  0  0  0  0  0  0  0  0  0  0  0
   18.4720    9.1780   33.4660 N   0  0  0  0  0  0  0  0  0  0  0  0
   20.3160   10.3400   32.3660 C   0  0  0  0  0  0  0  0  0  0  0  0
   19.8890   11.6390   32.7110 C   0  0  0  0  0  0  0  0  0  0  0  0
   19.5820   12.7320   32.9500 N   0  0  0  0  0  0  0  0  0  0  0  0
   21.8070    6.7000   30.8650 N   0  0  0  0  0  0  0  0  0  0  0  0
   21.1960    5.4260   30.7790 C   0  0  0  0  0  0  0  0  0  0  0  0
   20.1230    5.1790   31.2860 O   0  0  0  0  0  0  0  0  0  0  0  0
   21.9820    4.4350   29.9310 C   0  0  0  0  0  0  0  0  0  0  0  0
   23.2940    4.0540   30.5500 C   0  0  0  0  0  0  0  0  0  0  0  0
   24.4440    4.8550   30.3460 C   0  0  0  0  0  0  0  0  0  0  0  0
   24.2080    5.9440   29.5130 O   0  0  0  0  0  0  0  0  0  0  0  0
   25.2630    6.9320   29.3790 C   0  0  0  0  0  0  0  0  0  0  0  0
   25.6770    4.5360   30.9260 C   0  0  0  0  0  0  0  0  0  0  0  0
   25.7860    3.3960   31.7180 C   0  0  0  0  0  0  0  0  0  0  0  0
   24.6520    2.5820   31.9070 C   0  0  0  0  0  0  0  0  0  0  0  0
   23.4150    2.8970   31.3260 C   0  0  0  0  0  0  0  0  0  0  0  0
   24.9010    1.4980   32.7250 O   0  0  0  0  0  0  0  0  0  0  0  0
   23.8910    0.4590   32.7920 C   0  0  0  0  0  0  0  0  0  0  0  0
   24.0250   13.1350   31.3420 H   0  0  0  0  0  0  0  0  0  0  0  0
   23.0430   13.3020   29.8280 H   0  0  0  0  0  0  0  0  0  0  0  0
   24.7580   12.7350   29.7310 H   0  0  0  0  0  0  0  0  0  0  0  0
   23.1310   10.7940   29.4700 H   0  0  0  0  0  0  0  0  0  0  0  0
   24.1170   10.6190   31.0230 H   0  0  0  0  0  0  0  0  0  0  0  0
   19.5400    6.9820   32.4540 H   0  0  0  0  0  0  0  0  0  0  0  0
   18.0660   10.0620   33.7720 H   0  0  0  0  0  0  0  0  0  0  0  0
   17.9610    8.3070   33.7060 H   0  0  0  0  0  0  0  0  0  0  0  0
   22.7340    6.8350   30.3890 H   0  0  0  0  0  0  0  0  0  0  0  0
   21.3540    3.5190   29.7790 H   0  0  0  0  0  0  0  0  0  0  0  0
   22.1720    4.9040   28.9260 H   0  0  0  0  0  0  0  0  0  0  0  0
   26.1320    6.4830   28.8540 H   0  0  0  0  0  0  0  0  0  0  0  0
   25.5400    7.3400   30.3740 H   0  0  0  0  0  0  0  0  0  0  0  0
   24.7640    7.7050   28.7510 H   0  0  0  0  0  0  0  0  0  0  0  0
   26.5610    5.1570   30.7640 H   0  0  0  0  0  0  0  0  0  0  0  0
   26.7430    3.1360   32.1790 H   0  0  0  0  0  0  0  0  0  0  0  0
   22.5500    2.2510   31.4770 H   0  0  0  0  0  0  0  0  0  0  0  0
   23.7040    0.0460   31.7770 H   0  0  0  0  0  0  0  0  0  0  0  0
   22.9650    0.8490   33.2660 H   0  0  0  0  0  0  0  0  0  0  0  0
   24.3900   -0.2960   33.4460 H   0  0  0  0  0  0  0  0  0  0  0  0
  1  2  1  0  0  0  0
  1 27  1  0  0  0  0
  1 28  1  0  0  0  0
  1 29  1  0  0  0  0
  2  3  1  0  0  0  0
  2 30  1  0  0  0  0
  2 31  1  0  0  0  0
  3  4  1  0  0  0  0
  4 10  2  0  0  0  0
  4  5  1  0  0  0  0
  5  6  2  0  0  0  0
  6  7  1  0  0  0  0
  6 13  1  0  0  0  0
  7  8  2  0  0  0  0
  7 32  1  0  0  0  0
  8  9  1  0  0  0  0
  8 10  1  0  0  0  0
  9 33  1  0  0  0  0
  9 34  1  0  0  0  0
 10 11  1  0  0  0  0
 11 12  3  0  0  0  0
 13 14  1  0  0  0  0
 13 35  1  0  0  0  0
 14 15  2  0  0  0  0
 14 16  1  0  0  0  0
 16 17  1  0  0  0  0
 16 36  1  0  0  0  0
 16 37  1  0  0  0  0
 17 24  2  0  0  0  0
 17 18  1  0  0  0  0
 18 19  1  0  0  0  0
 18 21  2  0  0  0  0
 19 20  1  0  0  0  0
 20 38  1  0  0  0  0
 20 39  1  0  0  0  0
 20 40  1  0  0  0  0
 21 22  1  0  0  0  0
 21 41  1  0  0  0  0
 22 23  2  0  0  0  0
 22 42  1  0  0  0  0
 23 24  1  0  0  0  0
 23 25  1  0  0  0  0
 24 43  1  0  0  0  0
 25 26  1  0  0  0  0
 26 44  1  0  0  0  0
 26 45  1  0  0  0  0
 26 46  1  0  0  0  0
M  END
$$$$
