p38a_3flz
 OpenBabel02232411163D
Structure written by MMmdl.
 46 49  0  0  0  0  0  0  0  0999 V2000
   35.0420   35.1820   19.0570 O   0  0  0  0  0  0  0  0  0  0  0  0
   34.9040   37.2850   20.2880 C   0  0  0  0  0  0  0  0  0  0  0  0
   34.2490   37.1380   22.6770 C   0  0  0  0  0  0  0  0  0  0  0  0
   34.5880   37.9240   21.5330 C   0  0  0  0  0  0  0  0  0  0  0  0
   34.5970   39.3360   21.6990 C   0  0  0  0  0  0  0  0  0  0  0  0
   34.0240   39.0980   23.9620 C   0  0  0  0  0  0  0  0  0  0  0  0
   34.8310   35.9340   20.2100 C   0  0  0  0  0  0  0  0  0  0  0  0
   36.1070   35.5930   18.2380 C   0  0  0  0  0  0  0  0  0  0  0  0
   33.8450   34.9470   23.7910 C   0  0  0  0  0  0  0  0  0  0  0  0
   34.9010   38.8580   27.1510 C   0  0  0  0  0  0  0  0  0  0  0  0
   37.3600   35.9490   18.7500 C   0  0  0  0  0  0  0  0  0  0  0  0
   38.1360   36.1880   16.4630 C   0  0  0  0  0  0  0  0  0  0  0  0
   38.3760   36.2530   17.8400 C   0  0  0  0  0  0  0  0  0  0  0  0
   36.8790   35.8110   15.9800 C   0  0  0  0  0  0  0  0  0  0  0  0
   34.2400   33.8560   21.2630 O   0  0  0  0  0  0  0  0  0  0  0  0
   34.4050   35.0540   21.3260 C   0  0  0  0  0  0  0  0  0  0  0  0
   35.8420   35.5070   16.8650 C   0  0  0  0  0  0  0  0  0  0  0  0
   34.3280   39.9350   22.8670 N   0  0  0  0  0  0  0  0  0  0  0  0
   34.1730   35.7420   22.5740 N   0  0  0  0  0  0  0  0  0  0  0  0
   33.9850   37.7190   23.8930 N   0  0  0  0  0  0  0  0  0  0  0  0
   33.6890   39.7130   25.1450 N   0  0  0  0  0  0  0  0  0  0  0  0
   33.5400   38.9640   26.4290 C   0  0  0  0  0  0  0  0  0  0  0  0
   32.5180   39.7140   27.3100 C   0  0  0  0  0  0  0  0  0  0  0  0
   32.4380   39.0540   28.6920 C   0  0  0  0  0  0  0  0  0  0  0  0
   33.7370   38.9800   29.3220 O   0  0  0  0  0  0  0  0  0  0  0  0
   34.7070   38.2430   28.5430 C   0  0  0  0  0  0  0  0  0  0  0  0
   35.2090   37.9100   19.4440 H   0  0  0  0  0  0  0  0  0  0  0  0
   34.8280   39.9850   20.8380 H   0  0  0  0  0  0  0  0  0  0  0  0
   33.8900   33.8510   23.5640 H   0  0  0  0  0  0  0  0  0  0  0  0
   34.5770   35.1810   24.6120 H   0  0  0  0  0  0  0  0  0  0  0  0
   32.8150   35.2080   24.1560 H   0  0  0  0  0  0  0  0  0  0  0  0
   35.5910   38.2110   26.5590 H   0  0  0  0  0  0  0  0  0  0  0  0
   35.3610   39.8710   27.2440 H   0  0  0  0  0  0  0  0  0  0  0  0
   37.5400   36.0210   19.8200 H   0  0  0  0  0  0  0  0  0  0  0  0
   38.9250   36.4680   15.7710 H   0  0  0  0  0  0  0  0  0  0  0  0
   39.3610   36.5580   18.1960 H   0  0  0  0  0  0  0  0  0  0  0  0
   36.6970   35.7800   14.9060 H   0  0  0  0  0  0  0  0  0  0  0  0
   34.8480   35.2590   16.4910 H   0  0  0  0  0  0  0  0  0  0  0  0
   33.7990   40.7430   25.2330 H   0  0  0  0  0  0  0  0  0  0  0  0
   33.1500   37.9300   26.2070 H   0  0  0  0  0  0  0  0  0  0  0  0
   32.8230   40.7820   27.4230 H   0  0  0  0  0  0  0  0  0  0  0  0
   31.5130   39.6860   26.8240 H   0  0  0  0  0  0  0  0  0  0  0  0
   31.8630   39.6860   29.4080 H   0  0  0  0  0  0  0  0  0  0  0  0
   32.0090   38.0270   28.6200 H   0  0  0  0  0  0  0  0  0  0  0  0
   34.3780   37.1800   28.4660 H   0  0  0  0  0  0  0  0  0  0  0  0
   35.6290   38.3400   29.1600 H   0  0  0  0  0  0  0  0  0  0  0  0
  1  7  1  0  0  0  0
  1  8  1  0  0  0  0
  2  4  1  0  0  0  0
  2  7  2  0  0  0  0
  2 27  1  0  0  0  0
  3  4  2  0  0  0  0
  3 19  1  0  0  0  0
  3 20  1  0  0  0  0
  4  5  1  0  0  0  0
  5 18  2  0  0  0  0
  5 28  1  0  0  0  0
  6 18  1  0  0  0  0
  6 20  2  0  0  0  0
  6 21  1  0  0  0  0
  7 16  1  0  0  0  0
  8 11  2  0  0  0  0
  8 17  1  0  0  0  0
  9 19  1  0  0  0  0
  9 29  1  0  0  0  0
  9 30  1  0  0  0  0
  9 31  1  0  0  0  0
 10 22  1  0  0  0  0
 10 26  1  0  0  0  0
 10 32  1  0  0  0  0
 10 33  1  0  0  0  0
 11 13  1  0  0  0  0
 11 34  1  0  0  0  0
 12 13  2  0  0  0  0
 12 14  1  0  0  0  0
 12 35  1  0  0  0  0
 13 36  1  0  0  0  0
 14 17  2  0  0  0  0
 14 37  1  0  0  0  0
 15 16  2  0  0  0  0
 16 19  1  0  0  0  0
 17 38  1  0  0  0  0
 21 22  1  0  0  0  0
 21 39  1  0  0  0  0
 22 23  1  0  0  0  0
 22 40  1  0  0  0  0
 23 24  1  0  0  0  0
 23 41  1  0  0  0  0
 23 42  1  0  0  0  0
 24 25  1  0  0  0  0
 24 43  1  0  0  0  0
 24 44  1  0  0  0  0
 25 26  1  0  0  0  0
 26 45  1  0  0  0  0
 26 46  1  0  0  0  0
M  END
$$$$
