CAT-13i
 OpenBabel02232411143D
Structure written by MMmdl.
 46 49  0  0  1  0  0  0  0  0999 V2000
   11.5500   -2.3650    1.1780 C   0  0  0  0  0  0  0  0  0  0  0  0
   12.8180   -2.1800    0.4440 N   0  0  0  0  0  0  0  0  0  0  0  0
   14.0630   -2.0430    1.0570 C   0  0  0  0  0  0  0  0  0  0  0  0
   14.3900   -2.1710    2.3800 N   0  0  0  0  0  0  0  0  0  0  0  0
   15.0300   -1.8340    0.0760 N   0  3  0  0  0  0  0  0  0  0  0  0
   14.5290   -2.2610   -1.2830 C   0  0  2  0  0  0  0  0  0  0  0  0
   14.8400   -3.7490   -1.5590 C   0  0  0  0  0  0  0  0  0  0  0  0
   16.2910   -4.1000   -1.3080 C   0  0  0  0  0  0  0  0  0  0  0  0
   16.7990   -4.1610    0.1250 C   0  0  0  0  0  0  0  0  0  0  0  0
   16.6380   -5.4360   -0.6630 C   0  0  0  0  0  0  0  0  0  0  0  0
   14.9800   -1.2390   -2.3010 C   0  0  0  0  0  0  0  0  0  0  0  0
   15.6030   -1.5930   -3.5030 C   0  0  0  0  0  0  0  0  0  0  0  0
   16.0440   -0.5900   -4.3750 C   0  0  0  0  0  0  0  0  0  0  0  0
   15.8730    0.7600   -4.0610 C   0  0  0  0  0  0  0  0  0  0  0  0
   15.2430    1.1260   -2.8590 C   0  0  0  0  0  0  0  0  0  0  0  0
   15.0440    2.5390   -2.4660 C   0  0  0  0  0  0  0  0  0  0  0  0
   14.5990    3.4990   -3.3880 C   0  0  0  0  0  0  0  0  0  0  0  0
   14.3130    4.8010   -2.9630 C   0  0  0  0  0  0  0  0  0  0  0  0
   14.4440    5.1540   -1.6170 C   0  0  0  0  0  0  0  0  0  0  0  0
   14.9020    4.1920   -0.7130 C   0  0  0  0  0  0  0  0  0  0  0  0
   14.9870    4.5740    0.9670 Cl  0  0  0  0  0  0  0  0  0  0  0  0
   15.2410    2.9050   -1.1220 C   0  0  0  0  0  0  0  0  0  0  0  0
   14.7840    0.1190   -1.9970 C   0  0  0  0  0  0  0  0  0  0  0  0
   12.9790   -2.1910   -1.0320 C   0  0  0  0  0  0  0  0  0  0  0  0
   12.0440   -2.1720   -1.7650 O   0  0  0  0  0  0  0  0  0  0  0  0
   11.7480   -2.5300    2.2700 H   0  0  0  0  0  0  0  0  0  0  0  0
   10.9070   -1.4520    1.0550 H   0  0  0  0  0  0  0  0  0  0  0  0
   11.0180   -3.2670    0.7720 H   0  0  0  0  0  0  0  0  0  0  0  0
   13.7550   -1.8600    3.1490 H   0  0  0  0  0  0  0  0  0  0  0  0
   16.0370   -1.8440    0.3900 H   0  0  0  0  0  0  0  0  0  0  0  0
   14.5790   -4.0080   -2.6180 H   0  0  0  0  0  0  0  0  0  0  0  0
   14.2000   -4.3920   -0.8990 H   0  0  0  0  0  0  0  0  0  0  0  0
   16.9740   -3.6950   -2.0650 H   0  0  0  0  0  0  0  0  0  0  0  0
   17.8010   -3.7750    0.3410 H   0  0  0  0  0  0  0  0  0  0  0  0
   16.1180   -3.9750    0.9620 H   0  0  0  0  0  0  0  0  0  0  0  0
   15.8170   -6.1120   -0.3960 H   0  0  0  0  0  0  0  0  0  0  0  0
   17.5540   -5.9450   -0.9720 H   0  0  0  0  0  0  0  0  0  0  0  0
   15.7630   -2.6380   -3.7720 H   0  0  0  0  0  0  0  0  0  0  0  0
   16.5450   -0.8710   -5.3070 H   0  0  0  0  0  0  0  0  0  0  0  0
   16.2420    1.5230   -4.7550 H   0  0  0  0  0  0  0  0  0  0  0  0
   14.4540    3.2290   -4.4380 H   0  0  0  0  0  0  0  0  0  0  0  0
   13.9590    5.5430   -3.6900 H   0  0  0  0  0  0  0  0  0  0  0  0
   14.1670    6.1530   -1.2780 H   0  0  0  0  0  0  0  0  0  0  0  0
   15.6380    2.1780   -0.4090 H   0  0  0  0  0  0  0  0  0  0  0  0
   14.2860    0.3880   -1.0620 H   0  0  0  0  0  0  0  0  0  0  0  0
   15.4240   -2.1130    2.6020 H   0  0  0  0  0  0  0  0  0  0  0  0
  1  2  1  0  0  0  0
  1 26  1  0  0  0  0
  1 27  1  0  0  0  0
  1 28  1  0  0  0  0
  2  3  1  0  0  0  0
  2 24  1  0  0  0  0
  3  4  1  0  0  0  0
  3  5  2  0  0  0  0
  4 29  1  0  0  0  0
  4 46  1  0  0  0  0
  5  6  1  0  0  0  0
  5 30  1  0  0  0  0
  6  7  1  6  0  0  0
  6 11  1  0  0  0  0
  6 24  1  0  0  0  0
  7  8  1  0  0  0  0
  7 31  1  0  0  0  0
  7 32  1  0  0  0  0
  8  9  1  0  0  0  0
  8 10  1  0  0  0  0
  8 33  1  0  0  0  0
  9 10  1  0  0  0  0
  9 34  1  0  0  0  0
  9 35  1  0  0  0  0
 10 36  1  0  0  0  0
 10 37  1  0  0  0  0
 11 12  2  0  0  0  0
 11 23  1  0  0  0  0
 12 13  1  0  0  0  0
 12 38  1  0  0  0  0
 13 14  2  0  0  0  0
 13 39  1  0  0  0  0
 14 15  1  0  0  0  0
 14 40  1  0  0  0  0
 15 16  1  0  0  0  0
 15 23  2  0  0  0  0
 16 17  2  0  0  0  0
 16 22  1  0  0  0  0
 17 18  1  0  0  0  0
 17 41  1  0  0  0  0
 18 19  2  0  0  0  0
 18 42  1  0  0  0  0
 19 20  1  0  0  0  0
 19 43  1  0  0  0  0
 20 21  1  0  0  0  0
 20 22  2  0  0  0  0
 22 44  1  0  0  0  0
 23 45  1  0  0  0  0
 24 25  2  0  0  0  0
M  CHG  1   5   1
M  END
$$$$
