18627-1
 OpenBabel02232411163D
Structure written by MMmdl.
 38 39  0  0  0  0  0  0  0  0999 V2000
   23.2300   10.8430   29.0620 C   0  0  0  0  0  0  0  0  0  0  0  0
   23.4920   11.0780   30.5350 C   0  0  0  0  0  0  0  0  0  0  0  0
   22.2200   11.1510   31.2850 O   0  0  0  0  0  0  0  0  0  0  0  0
   21.5760   10.0110   31.6170 C   0  0  0  0  0  0  0  0  0  0  0  0
   22.0550    8.8200   31.1900 N   0  0  0  0  0  0  0  0  0  0  0  0
   21.3240    7.6850   31.5020 C   0  0  0  0  0  0  0  0  0  0  0  0
   20.1590    7.7240   32.2600 C   0  0  0  0  0  0  0  0  0  0  0  0
   19.6710    8.9780   32.7200 C   0  0  0  0  0  0  0  0  0  0  0  0
   18.5110    9.0290   33.4500 N   0  0  0  0  0  0  0  0  0  0  0  0
   20.3890   10.1720   32.3930 C   0  0  0  0  0  0  0  0  0  0  0  0
   19.9820   11.4730   32.7610 C   0  0  0  0  0  0  0  0  0  0  0  0
   19.7010   12.5670   33.0230 N   0  0  0  0  0  0  0  0  0  0  0  0
   21.9080    6.5240   30.9380 N   0  0  0  0  0  0  0  0  0  0  0  0
   21.3580    5.2190   30.9060 C   0  0  0  0  0  0  0  0  0  0  0  0
   20.3070    4.9450   31.4440 O   0  0  0  0  0  0  0  0  0  0  0  0
   22.1810    4.2360   30.0860 C   0  0  0  0  0  0  0  0  0  0  0  0
   23.4800    3.8710   30.7510 C   0  0  0  0  0  0  0  0  0  0  0  0
   24.6400    4.6210   30.4990 C   0  0  0  0  0  0  0  0  0  0  0  0
   25.8450    4.2980   31.1280 C   0  0  0  0  0  0  0  0  0  0  0  0
   25.8770    3.2120   32.0050 C   0  0  0  0  0  0  0  0  0  0  0  0
   27.3590    2.8110   32.7870 Cl  0  0  0  0  0  0  0  0  0  0  0  0
   24.7430    2.4350   32.2540 C   0  0  0  0  0  0  0  0  0  0  0  0
   23.5450    2.7660   31.6150 C   0  0  0  0  0  0  0  0  0  0  0  0
   22.8840    9.7990   28.8730 H   0  0  0  0  0  0  0  0  0  0  0  0
   22.4670   11.5500   28.6670 H   0  0  0  0  0  0  0  0  0  0  0  0
   24.1780   11.0000   28.4900 H   0  0  0  0  0  0  0  0  0  0  0  0
   23.8740   12.1080   30.7370 H   0  0  0  0  0  0  0  0  0  0  0  0
   24.1420   10.2920   30.9800 H   0  0  0  0  0  0  0  0  0  0  0  0
   19.6040    6.8130   32.4910 H   0  0  0  0  0  0  0  0  0  0  0  0
   18.0090    8.1630   33.7230 H   0  0  0  0  0  0  0  0  0  0  0  0
   18.1160    9.9180   33.7590 H   0  0  0  0  0  0  0  0  0  0  0  0
   22.8130    6.6860   30.4510 H   0  0  0  0  0  0  0  0  0  0  0  0
   21.5690    3.3100   29.9260 H   0  0  0  0  0  0  0  0  0  0  0  0
   22.3870    4.6890   29.0790 H   0  0  0  0  0  0  0  0  0  0  0  0
   24.6260    5.4610   29.7990 H   0  0  0  0  0  0  0  0  0  0  0  0
   26.7440    4.8890   30.9250 H   0  0  0  0  0  0  0  0  0  0  0  0
   24.7880    1.5750   32.9320 H   0  0  0  0  0  0  0  0  0  0  0  0
   22.6640    2.1430   31.7900 H   0  0  0  0  0  0  0  0  0  0  0  0
  1  2  1  0  0  0  0
  1 24  1  0  0  0  0
  1 25  1  0  0  0  0
  1 26  1  0  0  0  0
  2  3  1  0  0  0  0
  2 27  1  0  0  0  0
  2 28  1  0  0  0  0
  3  4  1  0  0  0  0
  4 10  2  0  0  0  0
  4  5  1  0  0  0  0
  5  6  2  0  0  0  0
  6  7  1  0  0  0  0
  6 13  1  0  0  0  0
  7  8  2  0  0  0  0
  7 29  1  0  0  0  0
  8  9  1  0  0  0  0
  8 10  1  0  0  0  0
  9 30  1  0  0  0  0
  9 31  1  0  0  0  0
 10 11  1  0  0  0  0
 11 12  3  0  0  0  0
 13 14  1  0  0  0  0
 13 32  1  0  0  0  0
 14 15  2  0  0  0  0
 14 16  1  0  0  0  0
 16 17  1  0  0  0  0
 16 33  1  0  0  0  0
 16 34  1  0  0  0  0
 17 23  2  0  0  0  0
 17 18  1  0  0  0  0
 18 19  2  0  0  0  0
 18 35  1  0  0  0  0
 19 20  1  0  0  0  0
 19 36  1  0  0  0  0
 20 21  1  0  0  0  0
 20 22  2  0  0  0  0
 22 23  1  0  0  0  0
 22 37  1  0  0  0  0
 23 38  1  0  0  0  0
M  END
$$$$
