18639-1
 OpenBabel02232411163D
Structure written by MMmdl.
 48 49  0  0  0  0  0  0  0  0999 V2000
   23.8420   12.6560   30.3350 C   0  0  0  0  0  0  0  0  0  0  0  0
   23.3900   11.2120   30.4460 C   0  0  0  0  0  0  0  0  0  0  0  0
   22.1400   11.3110   31.2430 O   0  0  0  0  0  0  0  0  0  0  0  0
   21.5120   10.1700   31.5930 C   0  0  0  0  0  0  0  0  0  0  0  0
   22.0020    8.9820   31.1630 N   0  0  0  0  0  0  0  0  0  0  0  0
   21.2790    7.8420   31.4820 C   0  0  0  0  0  0  0  0  0  0  0  0
   20.1190    7.8760   32.2490 C   0  0  0  0  0  0  0  0  0  0  0  0
   19.6230    9.1250   32.7110 C   0  0  0  0  0  0  0  0  0  0  0  0
   18.4770    9.1600   33.4640 N   0  0  0  0  0  0  0  0  0  0  0  0
   20.3240   10.3250   32.3690 C   0  0  0  0  0  0  0  0  0  0  0  0
   19.8960   11.6240   32.7160 C   0  0  0  0  0  0  0  0  0  0  0  0
   19.5920   12.7160   32.9580 N   0  0  0  0  0  0  0  0  0  0  0  0
   21.8590    6.6760   30.9290 N   0  0  0  0  0  0  0  0  0  0  0  0
   21.2620    5.4000   30.8540 C   0  0  0  0  0  0  0  0  0  0  0  0
   20.1730    5.1520   31.3280 O   0  0  0  0  0  0  0  0  0  0  0  0
   22.0760    4.3910   30.0520 C   0  0  0  0  0  0  0  0  0  0  0  0
   23.4330    4.0930   30.6180 C   0  0  0  0  0  0  0  0  0  0  0  0
   24.5460    4.9360   30.3060 C   0  0  0  0  0  0  0  0  0  0  0  0
   24.2090    5.9890   29.4650 O   0  0  0  0  0  0  0  0  0  0  0  0
   25.1890    7.0490   29.2870 C   0  0  0  0  0  0  0  0  0  0  0  0
   25.8190    4.6710   30.7850 C   0  0  0  0  0  0  0  0  0  0  0  0
   26.0270    3.5480   31.6140 C   0  0  0  0  0  0  0  0  0  0  0  0
   27.3730    3.2660   32.1200 N   0  3  0  0  0  0  0  0  0  0  0  0
   27.4910    2.4650   33.0340 O   0  5  0  0  0  0  0  0  0  0  0  0
   28.3250    3.8400   31.6030 O   0  0  0  0  0  0  0  0  0  0  0  0
   24.9390    2.7010   31.9280 C   0  0  0  0  0  0  0  0  0  0  0  0
   23.6510    2.9800   31.4140 C   0  0  0  0  0  0  0  0  0  0  0  0
   25.2660    1.6540   32.7360 O   0  0  0  0  0  0  0  0  0  0  0  0
   24.2530    0.6280   32.9590 C   0  0  0  0  0  0  0  0  0  0  0  0
   24.0750   13.0870   31.3340 H   0  0  0  0  0  0  0  0  0  0  0  0
   23.0600   13.2830   29.8450 H   0  0  0  0  0  0  0  0  0  0  0  0
   24.7650   12.6930   29.7020 H   0  0  0  0  0  0  0  0  0  0  0  0
   23.1240   10.7710   29.4590 H   0  0  0  0  0  0  0  0  0  0  0  0
   24.1120   10.5780   31.0070 H   0  0  0  0  0  0  0  0  0  0  0  0
   19.5700    6.9610   32.4830 H   0  0  0  0  0  0  0  0  0  0  0  0
   17.9740    8.2870   33.7110 H   0  0  0  0  0  0  0  0  0  0  0  0
   18.0660   10.0440   33.7650 H   0  0  0  0  0  0  0  0  0  0  0  0
   22.7800    6.8170   30.4450 H   0  0  0  0  0  0  0  0  0  0  0  0
   21.4850    3.4380   29.9830 H   0  0  0  0  0  0  0  0  0  0  0  0
   22.2020    4.8050   29.0110 H   0  0  0  0  0  0  0  0  0  0  0  0
   25.5190    7.4450   30.2710 H   0  0  0  0  0  0  0  0  0  0  0  0
   26.0330    6.6670   28.6750 H   0  0  0  0  0  0  0  0  0  0  0  0
   24.5890    7.8060   28.7300 H   0  0  0  0  0  0  0  0  0  0  0  0
   26.6720    5.3090   30.5220 H   0  0  0  0  0  0  0  0  0  0  0  0
   22.8210    2.3060   31.6440 H   0  0  0  0  0  0  0  0  0  0  0  0
   24.8230   -0.1150   33.5670 H   0  0  0  0  0  0  0  0  0  0  0  0
   23.4020    1.0480   33.5370 H   0  0  0  0  0  0  0  0  0  0  0  0
   23.9350    0.1890   31.9880 H   0  0  0  0  0  0  0  0  0  0  0  0
  1  2  1  0  0  0  0
  1 30  1  0  0  0  0
  1 31  1  0  0  0  0
  1 32  1  0  0  0  0
  2  3  1  0  0  0  0
  2 33  1  0  0  0  0
  2 34  1  0  0  0  0
  3  4  1  0  0  0  0
  4 10  2  0  0  0  0
  4  5  1  0  0  0  0
  5  6  2  0  0  0  0
  6  7  1  0  0  0  0
  6 13  1  0  0  0  0
  7  8  2  0  0  0  0
  7 35  1  0  0  0  0
  8  9  1  0  0  0  0
  8 10  1  0  0  0  0
  9 36  1  0  0  0  0
  9 37  1  0  0  0  0
 10 11  1  0  0  0  0
 11 12  3  0  0  0  0
 13 14  1  0  0  0  0
 13 38  1  0  0  0  0
 14 15  2  0  0  0  0
 14 16  1  0  0  0  0
 16 17  1  0  0  0  0
 16 39  1  0  0  0  0
 16 40  1  0  0  0  0
 17 27  2  0  0  0  0
 17 18  1  0  0  0  0
 18 19  1  0  0  0  0
 18 21  2  0  0  0  0
 19 20  1  0  0  0  0
 20 41  1  0  0  0  0
 20 42  1  0  0  0  0
 20 43  1  0  0  0  0
 21 22  1  0  0  0  0
 21 44  1  0  0  0  0
 22 23  1  0  0  0  0
 22 26  2  0  0  0  0
 23 24  1  0  0  0  0
 23 25  2  0  0  0  0
 26 27  1  0  0  0  0
 26 28  1  0  0  0  0
 27 45  1  0  0  0  0
 28 29  1  0  0  0  0
 29 46  1  0  0  0  0
 29 47  1  0  0  0  0
 29 48  1  0  0  0  0
M  CHG  2  23   1  24  -1
M  END
$$$$
