p38a_2o
 OpenBabel02232411163D
Structure written by MMmdl.
 55 58  0  0  0  0  0  0  0  0999 V2000
   36.3620   36.0250   15.8030 C   0  0  0  0  0  0  0  0  0  0  0  0
   34.5810   35.0140   21.3560 C   0  0  0  0  0  0  0  0  0  0  0  0
   35.7020   35.5490   16.9320 C   0  0  0  0  0  0  0  0  0  0  0  0
   34.0520   39.1410   23.8270 C   0  0  0  0  0  0  0  0  0  0  0  0
   34.7530   37.8870   21.4730 C   0  0  0  0  0  0  0  0  0  0  0  0
   35.1980   37.2020   20.2890 C   0  0  0  0  0  0  0  0  0  0  0  0
   37.6520   36.5350   16.0020 C   0  0  0  0  0  0  0  0  0  0  0  0
   38.2910   36.5500   17.2460 C   0  0  0  0  0  0  0  0  0  0  0  0
   37.5920   36.1020   18.3710 C   0  0  0  0  0  0  0  0  0  0  0  0
   34.3350   37.1410   22.6130 C   0  0  0  0  0  0  0  0  0  0  0  0
   34.7250   39.3030   21.5870 C   0  0  0  0  0  0  0  0  0  0  0  0
   35.1510   35.8510   20.2640 C   0  0  0  0  0  0  0  0  0  0  0  0
   36.2970   35.6010   18.2090 C   0  0  0  0  0  0  0  0  0  0  0  0
   34.4910   35.0180   16.8300 F   0  0  0  0  0  0  0  0  0  0  0  0
   35.5670   34.9990   19.2440 O   0  0  0  0  0  0  0  0  0  0  0  0
   34.3910   39.9430   22.7190 N   0  0  0  0  0  0  0  0  0  0  0  0
   34.3990   33.8190   21.2970 O   0  0  0  0  0  0  0  0  0  0  0  0
   34.2620   35.7360   22.5620 N   0  0  0  0  0  0  0  0  0  0  0  0
   34.0040   37.7610   23.7900 N   0  0  0  0  0  0  0  0  0  0  0  0
   33.6900   39.7800   24.9910 N   0  0  0  0  0  0  0  0  0  0  0  0
   35.8900   36.0270   14.8180 H   0  0  0  0  0  0  0  0  0  0  0  0
   35.5760   37.8050   19.4590 H   0  0  0  0  0  0  0  0  0  0  0  0
   39.3090   36.9350   17.3480 H   0  0  0  0  0  0  0  0  0  0  0  0
   38.0520   36.1690   19.3600 H   0  0  0  0  0  0  0  0  0  0  0  0
   34.9860   39.9280   20.7170 H   0  0  0  0  0  0  0  0  0  0  0  0
   33.8000   40.8090   25.0690 H   0  0  0  0  0  0  0  0  0  0  0  0
   38.2820   37.0630   14.9560 F   0  0  0  0  0  0  0  0  0  0  0  0
   32.3630   39.0420   28.4980 C   0  0  0  0  0  0  0  0  0  0  0  0
   32.4310   39.6970   27.1120 C   0  0  0  0  0  0  0  0  0  0  0  0
   33.5620   39.0470   26.2880 C   0  0  0  0  0  0  0  0  0  0  0  0
   34.8950   39.1080   27.0660 C   0  0  0  0  0  0  0  0  0  0  0  0
   34.7150   38.4850   28.4550 C   0  0  0  0  0  0  0  0  0  0  0  0
   33.6320   39.1070   29.1850 O   0  0  0  0  0  0  0  0  0  0  0  0
   32.0450   37.9770   28.4150 H   0  0  0  0  0  0  0  0  0  0  0  0
   31.6940   39.6150   29.1800 H   0  0  0  0  0  0  0  0  0  0  0  0
   32.6210   40.7910   27.2210 H   0  0  0  0  0  0  0  0  0  0  0  0
   31.4570   39.5590   26.5830 H   0  0  0  0  0  0  0  0  0  0  0  0
   33.2930   37.9760   26.0770 H   0  0  0  0  0  0  0  0  0  0  0  0
   35.6820   38.5470   26.5080 H   0  0  0  0  0  0  0  0  0  0  0  0
   35.2220   40.1720   27.1630 H   0  0  0  0  0  0  0  0  0  0  0  0
   34.5130   37.3920   28.3770 H   0  0  0  0  0  0  0  0  0  0  0  0
   35.5920   38.6990   29.1090 H   0  0  0  0  0  0  0  0  0  0  0  0
   33.7350   34.9790   23.7550 C   0  0  0  0  0  0  0  0  0  0  0  0
   34.2140   33.9610   23.7470 H   0  0  0  0  0  0  0  0  0  0  0  0
   34.0540   35.5370   24.6830 H   0  0  0  0  0  0  0  0  0  0  0  0
   32.2110   34.8660   23.6900 C   0  0  0  0  0  0  0  0  0  0  0  0
   31.7860   35.8860   23.4640 H   0  0  0  0  0  0  0  0  0  0  0  0
   31.9140   34.2180   22.8200 H   0  0  0  0  0  0  0  0  0  0  0  0
   31.4550   34.2480   25.1700 S   0  0  0  0  0  0  0  0  0  0  0  0
   32.4710   33.8220   26.1550 O   0  0  0  0  0  0  0  0  0  0  0  0
   30.5730   33.1100   24.8270 O   0  0  0  0  0  0  0  0  0  0  0  0
   30.5330   35.5960   25.7500 C   0  0  0  0  0  0  0  0  0  0  0  0
   29.7210   35.9000   25.0380 H   0  0  0  0  0  0  0  0  0  0  0  0
   30.0190   35.3880   26.7280 H   0  0  0  0  0  0  0  0  0  0  0  0
   31.1620   36.5080   25.9290 H   0  0  0  0  0  0  0  0  0  0  0  0
  1  3  2  0  0  0  0
  1  7  1  0  0  0  0
  1 21  1  0  0  0  0
  2 12  1  0  0  0  0
  2 17  2  0  0  0  0
  2 18  1  0  0  0  0
  3 13  1  0  0  0  0
  3 14  1  0  0  0  0
  4 16  2  0  0  0  0
  4 19  1  0  0  0  0
  4 20  1  0  0  0  0
  5  6  1  0  0  0  0
  5 10  1  0  0  0  0
  5 11  2  0  0  0  0
  6 12  2  0  0  0  0
  6 22  1  0  0  0  0
  7  8  2  0  0  0  0
  7 27  1  0  0  0  0
  8  9  1  0  0  0  0
  8 23  1  0  0  0  0
  9 13  2  0  0  0  0
  9 24  1  0  0  0  0
 10 18  1  0  0  0  0
 10 19  2  0  0  0  0
 11 16  1  0  0  0  0
 11 25  1  0  0  0  0
 12 15  1  0  0  0  0
 13 15  1  0  0  0  0
 18 43  1  0  0  0  0
 20 26  1  0  0  0  0
 20 30  1  0  0  0  0
 28 29  1  0  0  0  0
 28 33  1  0  0  0  0
 28 34  1  0  0  0  0
 28 35  1  0  0  0  0
 29 30  1  0  0  0  0
 29 36  1  0  0  0  0
 29 37  1  0  0  0  0
 30 31  1  0  0  0  0
 30 38  1  0  0  0  0
 31 32  1  0  0  0  0
 31 39  1  0  0  0  0
 31 40  1  0  0  0  0
 32 33  1  0  0  0  0
 32 41  1  0  0  0  0
 32 42  1  0  0  0  0
 43 44  1  0  0  0  0
 43 45  1  0  0  0  0
 43 46  1  0  0  0  0
 46 47  1  0  0  0  0
 46 48  1  0  0  0  0
 46 49  1  0  0  0  0
 49 50  2  0  0  0  0
 49 51  2  0  0  0  0
 49 52  1  0  0  0  0
 52 53  1  0  0  0  0
 52 54  1  0  0  0  0
 52 55  1  0  0  0  0
M  END
$$$$
