43
 OpenBabel02232411163D
Structure written by MMmdl.
 44 47  0  0  0  0  0  0  0  0999 V2000
    3.5830  -48.3920    7.1490 O   0  0  0  0  0  0  0  0  0  0  0  0
    3.1920  -49.3090    6.4140 C   0  0  0  0  0  0  0  0  0  0  0  0
    3.8990  -50.0890    5.7470 O   0  5  0  0  0  0  0  0  0  0  0  0
    1.6760  -49.5630    6.3200 C   0  0  0  0  0  0  0  0  0  0  0  0
   -0.2200  -50.8330    6.4820 C   0  0  0  0  0  0  0  0  0  0  0  0
   -1.1700  -51.8430    6.7100 C   0  0  0  0  0  0  0  0  0  0  0  0
   -2.4940  -51.5500    6.4200 C   0  0  0  0  0  0  0  0  0  0  0  0
   -2.8710  -50.2860    5.9080 C   0  0  0  0  0  0  0  0  0  0  0  0
   -1.9370  -49.2840    5.6820 C   0  0  0  0  0  0  0  0  0  0  0  0
   -0.5860  -49.5350    5.9710 C   0  0  0  0  0  0  0  0  0  0  0  0
    0.6300  -48.7530    5.8910 C   0  0  0  0  0  0  0  0  0  0  0  0
    0.6810  -47.3400    5.4310 C   0  0  0  0  0  0  0  0  0  0  0  0
    0.6750  -46.3290    6.5920 C   0  0  0  0  0  0  0  0  0  0  0  0
   -0.6060  -46.3560    7.4190 C   0  0  0  0  0  0  0  0  0  0  0  0
   -1.6160  -45.7360    6.5410 O   0  0  0  0  0  0  0  0  0  0  0  0
   -2.8860  -45.6030    7.0150 C   0  0  0  0  0  0  0  0  0  0  0  0
   -4.6380  -45.9390    8.6480 C   0  0  0  0  0  0  0  0  0  0  0  0
   -3.3250  -46.0930    8.2870 C   0  0  0  0  0  0  0  0  0  0  0  0
   -0.8850  -52.8190    7.1030 H   0  0  0  0  0  0  0  0  0  0  0  0
   -3.2680  -52.3010    6.5890 H   0  0  0  0  0  0  0  0  0  0  0  0
   -3.9250  -50.1090    5.6910 H   0  0  0  0  0  0  0  0  0  0  0  0
   -2.2560  -48.3180    5.2880 H   0  0  0  0  0  0  0  0  0  0  0  0
   -0.2170  -47.1340    4.7920 H   0  0  0  0  0  0  0  0  0  0  0  0
    1.5980  -47.1580    4.8210 H   0  0  0  0  0  0  0  0  0  0  0  0
    1.5250  -46.5550    7.2810 H   0  0  0  0  0  0  0  0  0  0  0  0
    0.7920  -45.3010    6.1760 H   0  0  0  0  0  0  0  0  0  0  0  0
   -0.5330  -45.7130    8.3200 H   0  0  0  0  0  0  0  0  0  0  0  0
   -0.9530  -47.3890    7.6370 H   0  0  0  0  0  0  0  0  0  0  0  0
   -2.6410  -46.5970    8.9670 H   0  0  0  0  0  0  0  0  0  0  0  0
   -3.7600  -44.9570    6.1510 C   0  0  0  0  0  0  0  0  0  0  0  0
   -4.9980  -46.3120    9.6110 H   0  0  0  0  0  0  0  0  0  0  0  0
   -5.1260  -44.8200    6.5100 C   0  0  0  0  0  0  0  0  0  0  0  0
   -5.5770  -45.3240    7.7640 C   0  0  0  0  0  0  0  0  0  0  0  0
   -6.9710  -45.2950    8.0730 C   0  0  0  0  0  0  0  0  0  0  0  0
   -7.8760  -44.8500    7.1440 C   0  0  0  0  0  0  0  0  0  0  0  0
   -7.4260  -44.3250    5.8960 C   0  0  0  0  0  0  0  0  0  0  0  0
   -6.0900  -44.2790    5.5950 C   0  0  0  0  0  0  0  0  0  0  0  0
   -7.3040  -45.6630    9.0440 H   0  0  0  0  0  0  0  0  0  0  0  0
   -8.9460  -44.9110    7.3330 H   0  0  0  0  0  0  0  0  0  0  0  0
   -8.1750  -43.9830    5.1850 H   0  0  0  0  0  0  0  0  0  0  0  0
   -5.7430  -43.8640    4.6490 H   0  0  0  0  0  0  0  0  0  0  0  0
   -3.4210  -44.5890    5.1850 H   0  0  0  0  0  0  0  0  0  0  0  0
    1.1690  -50.8250    6.6860 N   0  0  0  0  0  0  0  0  0  0  0  0
    1.6880  -51.6240    7.0300 H   0  0  0  0  0  0  0  0  0  0  0  0
  1  2  2  0  0  0  0
  2  3  1  0  0  0  0
  2  4  1  0  0  0  0
  4 11  2  0  0  0  0
  4 43  1  0  0  0  0
  5  6  2  0  0  0  0
  5 10  1  0  0  0  0
  5 43  1  0  0  0  0
  6  7  1  0  0  0  0
  6 19  1  0  0  0  0
  7  8  2  0  0  0  0
  7 20  1  0  0  0  0
  8  9  1  0  0  0  0
  8 21  1  0  0  0  0
  9 10  2  0  0  0  0
  9 22  1  0  0  0  0
 10 11  1  0  0  0  0
 11 12  1  0  0  0  0
 12 23  1  0  0  0  0
 12 24  1  0  0  0  0
 12 13  1  0  0  0  0
 13 14  1  0  0  0  0
 13 25  1  0  0  0  0
 13 26  1  0  0  0  0
 14 15  1  0  0  0  0
 14 27  1  0  0  0  0
 14 28  1  0  0  0  0
 15 16  1  0  0  0  0
 16 18  2  0  0  0  0
 16 30  1  0  0  0  0
 17 18  1  0  0  0  0
 17 31  1  0  0  0  0
 17 33  2  0  0  0  0
 18 29  1  0  0  0  0
 30 32  2  0  0  0  0
 30 42  1  0  0  0  0
 32 33  1  0  0  0  0
 32 37  1  0  0  0  0
 33 34  1  0  0  0  0
 34 35  2  0  0  0  0
 34 38  1  0  0  0  0
 35 36  1  0  0  0  0
 35 39  1  0  0  0  0
 36 37  2  0  0  0  0
 36 40  1  0  0  0  0
 37 41  1  0  0  0  0
 43 44  1  0  0  0  0
M  CHG  1   3  -1
M  END
$$$$
