18658-1
 OpenBabel02232411163D
Structure written by MMmdl.
 47 48  0  0  0  0  0  0  0  0999 V2000
   24.4000   13.2980   30.2790 O   0  0  0  0  0  0  0  0  0  0  0  0
   23.3550   12.5430   29.6500 C   0  0  0  0  0  0  0  0  0  0  0  0
   23.2520   11.1280   30.2310 C   0  0  0  0  0  0  0  0  0  0  0  0
   22.1210   11.2300   31.1750 O   0  0  0  0  0  0  0  0  0  0  0  0
   21.5060   10.0850   31.5610 C   0  0  0  0  0  0  0  0  0  0  0  0
   21.9820    8.8970   31.1270 N   0  0  0  0  0  0  0  0  0  0  0  0
   21.2660    7.7570   31.4680 C   0  0  0  0  0  0  0  0  0  0  0  0
   20.1220    7.8020   32.2600 C   0  0  0  0  0  0  0  0  0  0  0  0
   19.6430    9.0550   32.7270 C   0  0  0  0  0  0  0  0  0  0  0  0
   18.5010    9.1050   33.4860 N   0  0  0  0  0  0  0  0  0  0  0  0
   20.3480   10.2510   32.3760 C   0  0  0  0  0  0  0  0  0  0  0  0
   19.9470   11.5510   32.7490 C   0  0  0  0  0  0  0  0  0  0  0  0
   19.6690   12.6440   33.0190 N   0  0  0  0  0  0  0  0  0  0  0  0
   21.8310    6.5950   30.9010 N   0  0  0  0  0  0  0  0  0  0  0  0
   21.2640    5.2980   30.8740 C   0  0  0  0  0  0  0  0  0  0  0  0
   20.2060    5.0350   31.4050 O   0  0  0  0  0  0  0  0  0  0  0  0
   22.0770    4.3030   30.0580 C   0  0  0  0  0  0  0  0  0  0  0  0
   23.4220    4.0170   30.6600 C   0  0  0  0  0  0  0  0  0  0  0  0
   24.5360    4.8550   30.3650 C   0  0  0  0  0  0  0  0  0  0  0  0
   24.2190    5.8920   29.4920 O   0  0  0  0  0  0  0  0  0  0  0  0
   25.2070    6.9420   29.3170 C   0  0  0  0  0  0  0  0  0  0  0  0
   25.7970    4.6110   30.8970 C   0  0  0  0  0  0  0  0  0  0  0  0
   25.9860    3.5220   31.7620 C   0  0  0  0  0  0  0  0  0  0  0  0
   24.9000    2.6990   32.0570 C   0  0  0  0  0  0  0  0  0  0  0  0
   23.6190    2.9280   31.4980 C   0  0  0  0  0  0  0  0  0  0  0  0
   24.9170    1.5990   32.8900 O   0  0  0  0  0  0  0  0  0  0  0  0
   26.1780    1.2550   33.5210 C   0  0  0  0  0  0  0  0  0  0  0  0
   25.2750   12.9820   29.9350 H   0  0  0  0  0  0  0  0  0  0  0  0
   22.4340   13.1350   29.8840 H   0  0  0  0  0  0  0  0  0  0  0  0
   23.5350   12.4960   28.5480 H   0  0  0  0  0  0  0  0  0  0  0  0
   23.0160   10.3780   29.4410 H   0  0  0  0  0  0  0  0  0  0  0  0
   24.1470   10.8320   30.8220 H   0  0  0  0  0  0  0  0  0  0  0  0
   19.5740    6.8920   32.5120 H   0  0  0  0  0  0  0  0  0  0  0  0
   17.9960    8.2380   33.7530 H   0  0  0  0  0  0  0  0  0  0  0  0
   18.1060    9.9950   33.7920 H   0  0  0  0  0  0  0  0  0  0  0  0
   22.7420    6.7440   30.3970 H   0  0  0  0  0  0  0  0  0  0  0  0
   21.4920    3.3500   29.9700 H   0  0  0  0  0  0  0  0  0  0  0  0
   22.2200    4.7280   29.0260 H   0  0  0  0  0  0  0  0  0  0  0  0
   26.0750    6.5410   28.7510 H   0  0  0  0  0  0  0  0  0  0  0  0
   24.6380    7.6880   28.7180 H   0  0  0  0  0  0  0  0  0  0  0  0
   25.5090    7.3620   30.3010 H   0  0  0  0  0  0  0  0  0  0  0  0
   26.6560    5.2420   30.6570 H   0  0  0  0  0  0  0  0  0  0  0  0
   26.9820    3.3500   32.1740 H   0  0  0  0  0  0  0  0  0  0  0  0
   22.8080    2.2350   31.7350 H   0  0  0  0  0  0  0  0  0  0  0  0
   25.8970    0.3530   34.1130 H   0  0  0  0  0  0  0  0  0  0  0  0
   26.5160    2.0820   34.1820 H   0  0  0  0  0  0  0  0  0  0  0  0
   26.9390    1.0060   32.7490 H   0  0  0  0  0  0  0  0  0  0  0  0
  1  2  1  0  0  0  0
  1 28  1  0  0  0  0
  2  3  1  0  0  0  0
  2 29  1  0  0  0  0
  2 30  1  0  0  0  0
  3  4  1  0  0  0  0
  3 31  1  0  0  0  0
  3 32  1  0  0  0  0
  4  5  1  0  0  0  0
  5 11  2  0  0  0  0
  5  6  1  0  0  0  0
  6  7  2  0  0  0  0
  7  8  1  0  0  0  0
  7 14  1  0  0  0  0
  8  9  2  0  0  0  0
  8 33  1  0  0  0  0
  9 10  1  0  0  0  0
  9 11  1  0  0  0  0
 10 34  1  0  0  0  0
 10 35  1  0  0  0  0
 11 12  1  0  0  0  0
 12 13  3  0  0  0  0
 14 15  1  0  0  0  0
 14 36  1  0  0  0  0
 15 16  2  0  0  0  0
 15 17  1  0  0  0  0
 17 18  1  0  0  0  0
 17 37  1  0  0  0  0
 17 38  1  0  0  0  0
 18 25  2  0  0  0  0
 18 19  1  0  0  0  0
 19 20  1  0  0  0  0
 19 22  2  0  0  0  0
 20 21  1  0  0  0  0
 21 39  1  0  0  0  0
 21 40  1  0  0  0  0
 21 41  1  0  0  0  0
 22 23  1  0  0  0  0
 22 42  1  0  0  0  0
 23 24  2  0  0  0  0
 23 43  1  0  0  0  0
 24 25  1  0  0  0  0
 24 26  1  0  0  0  0
 25 44  1  0  0  0  0
 26 27  1  0  0  0  0
 27 45  1  0  0  0  0
 27 46  1  0  0  0  0
 27 47  1  0  0  0  0
M  END
$$$$
