23486
 OpenBabel02232411173D
Structure written by MMmdl.
 60 63  0  0  0  0  0  0  0  0999 V2000
   42.4220   17.9930   12.6380 O   0  0  0  0  0  0  0  0  0  0  0  0
   41.2780   17.6900   12.9920 C   0  0  0  0  0  0  0  0  0  0  0  0
   40.2330   18.3340   12.7520 O   0  5  0  0  0  0  0  0  0  0  0  0
   41.0660   16.3780   13.8060 C   0  0  0  0  0  0  0  0  0  0  0  0
   42.4060   15.7920   13.7600 O   0  0  0  0  0  0  0  0  0  0  0  0
   42.6430   14.8670   14.7280 C   0  0  0  0  0  0  0  0  0  0  0  0
   42.0610   13.5390   14.6700 C   0  0  0  0  0  0  0  0  0  0  0  0
   40.9770   13.1860   13.3950 Cl  0  0  0  0  0  0  0  0  0  0  0  0
   42.4740   12.6770   15.6520 C   0  0  0  0  0  0  0  0  0  0  0  0
   42.0710   11.3260   15.9760 C   0  0  0  0  0  0  0  0  0  0  0  0
   42.8170   10.5110   16.8680 C   0  0  0  0  0  0  0  0  0  0  0  0
   42.3580    9.2440   17.2080 C   0  0  0  0  0  0  0  0  0  0  0  0
   41.1670    8.7170   16.6810 C   0  0  0  0  0  0  0  0  0  0  0  0
   40.4290    9.5030   15.7910 C   0  0  0  0  0  0  0  0  0  0  0  0
   39.1430    9.1640   15.2630 N   0  0  0  0  0  0  0  0  0  0  0  0
   38.5420    7.8230   15.4350 C   0  0  0  0  0  0  0  0  0  0  0  0
   37.0270    7.9270   15.1100 C   0  0  0  0  0  0  0  0  0  0  0  0
   36.7470    8.0930   13.6080 C   0  0  0  0  0  0  0  0  0  0  0  0
   37.3760    7.0300   12.7770 N   0  0  0  0  0  0  0  0  0  0  0  0
   36.4020    5.7240   12.2910 S   0  0  0  0  0  0  0  0  0  0  0  0
   37.1330    4.9610   11.2870 O   0  0  0  0  0  0  0  0  0  0  0  0
   35.1910    6.3530   11.7330 O   0  0  0  0  0  0  0  0  0  0  0  0
   36.0020    4.7260   13.6810 C   0  0  0  0  0  0  0  0  0  0  0  0
   35.7440    3.3150   13.2640 C   0  0  0  0  0  0  0  0  0  0  0  0
   34.4470    2.8960   12.9290 C   0  0  0  0  0  0  0  0  0  0  0  0
   34.2190    1.5770   12.5270 C   0  0  0  0  0  0  0  0  0  0  0  0
   35.2770    0.6660   12.4560 C   0  0  0  0  0  0  0  0  0  0  0  0
   36.5690    1.0780   12.7970 C   0  0  0  0  0  0  0  0  0  0  0  0
   36.8050    2.3930   13.2050 C   0  0  0  0  0  0  0  0  0  0  0  0
   38.8220    6.8240   13.0700 C   0  0  0  0  0  0  0  0  0  0  0  0
   39.1620    6.7010   14.5630 C   0  0  0  0  0  0  0  0  0  0  0  0
   40.8940   10.7930   15.4390 C   0  0  0  0  0  0  0  0  0  0  0  0
   43.6440   13.5350   16.6450 S   0  0  0  0  0  0  0  0  0  0  0  0
   43.5360   15.0380   15.7500 C   0  0  0  0  0  0  0  0  0  0  0  0
   44.3420   16.2710   16.1810 C   0  0  0  0  0  0  0  0  0  0  0  0
   44.9730   16.1390   17.2550 O   0  0  0  0  0  0  0  0  0  0  0  0
   44.3450   17.2650   15.4550 O   0  5  0  0  0  0  0  0  0  0  0  0
   40.3530   15.6940   13.3010 H   0  0  0  0  0  0  0  0  0  0  0  0
   40.7460   16.5720   14.8500 H   0  0  0  0  0  0  0  0  0  0  0  0
   43.7580   10.8560   17.2990 H   0  0  0  0  0  0  0  0  0  0  0  0
   42.9250    8.6240   17.9070 H   0  0  0  0  0  0  0  0  0  0  0  0
   40.8450    7.7200   16.9680 H   0  0  0  0  0  0  0  0  0  0  0  0
   38.9790    9.5320   14.3130 H   0  0  0  0  0  0  0  0  0  0  0  0
   38.6470    7.5150   16.5110 H   0  0  0  0  0  0  0  0  0  0  0  0
   36.5380    7.0000   15.4950 H   0  0  0  0  0  0  0  0  0  0  0  0
   36.5910    8.7890   15.6670 H   0  0  0  0  0  0  0  0  0  0  0  0
   35.6400    8.0940   13.4380 H   0  0  0  0  0  0  0  0  0  0  0  0
   37.1660    9.0750   13.2510 H   0  0  0  0  0  0  0  0  0  0  0  0
   36.8290    4.7470   14.4520 H   0  0  0  0  0  0  0  0  0  0  0  0
   35.1110    5.1420   14.2310 H   0  0  0  0  0  0  0  0  0  0  0  0
   33.6020    3.5870   12.9870 H   0  0  0  0  0  0  0  0  0  0  0  0
   33.2050    1.2520   12.2730 H   0  0  0  0  0  0  0  0  0  0  0  0
   35.0920   -0.3650   12.1430 H   0  0  0  0  0  0  0  0  0  0  0  0
   37.3960    0.3620   12.7550 H   0  0  0  0  0  0  0  0  0  0  0  0
   37.8200    2.6940   13.4880 H   0  0  0  0  0  0  0  0  0  0  0  0
   39.1930    5.9080   12.5430 H   0  0  0  0  0  0  0  0  0  0  0  0
   39.3600    7.7240   12.6670 H   0  0  0  0  0  0  0  0  0  0  0  0
   40.2740    6.7130   14.6790 H   0  0  0  0  0  0  0  0  0  0  0  0
   38.8060    5.7230   14.9630 H   0  0  0  0  0  0  0  0  0  0  0  0
   40.2760   11.3640   14.7520 H   0  0  0  0  0  0  0  0  0  0  0  0
  1  2  2  0  0  0  0
  2  3  1  0  0  0  0
  2  4  1  0  0  0  0
  4  5  1  0  0  0  0
  4 38  1  0  0  0  0
  4 39  1  0  0  0  0
  5  6  1  0  0  0  0
  6 34  2  0  0  0  0
  6  7  1  0  0  0  0
  7  8  1  0  0  0  0
  7  9  2  0  0  0  0
  9 10  1  0  0  0  0
  9 33  1  0  0  0  0
 10 32  2  0  0  0  0
 10 11  1  0  0  0  0
 11 12  2  0  0  0  0
 11 40  1  0  0  0  0
 12 13  1  0  0  0  0
 12 41  1  0  0  0  0
 13 14  2  0  0  0  0
 13 42  1  0  0  0  0
 14 15  1  0  0  0  0
 14 32  1  0  0  0  0
 15 16  1  0  0  0  0
 15 43  1  0  0  0  0
 16 31  1  0  0  0  0
 16 17  1  0  0  0  0
 16 44  1  0  0  0  0
 17 18  1  0  0  0  0
 17 45  1  0  0  0  0
 17 46  1  0  0  0  0
 18 19  1  0  0  0  0
 18 47  1  0  0  0  0
 18 48  1  0  0  0  0
 19 20  1  0  0  0  0
 19 30  1  0  0  0  0
 20 21  2  0  0  0  0
 20 22  2  0  0  0  0
 20 23  1  0  0  0  0
 23 24  1  0  0  0  0
 23 49  1  0  0  0  0
 23 50  1  0  0  0  0
 24 29  2  0  0  0  0
 24 25  1  0  0  0  0
 25 26  2  0  0  0  0
 25 51  1  0  0  0  0
 26 27  1  0  0  0  0
 26 52  1  0  0  0  0
 27 28  2  0  0  0  0
 27 53  1  0  0  0  0
 28 29  1  0  0  0  0
 28 54  1  0  0  0  0
 29 55  1  0  0  0  0
 30 31  1  0  0  0  0
 30 56  1  0  0  0  0
 30 57  1  0  0  0  0
 31 58  1  0  0  0  0
 31 59  1  0  0  0  0
 32 60  1  0  0  0  0
 33 34  1  0  0  0  0
 34 35  1  0  0  0  0
 35 36  2  0  0  0  0
 35 37  1  0  0  0  0
M  CHG  2   3  -1  37  -1
M  END
$$$$
