48
 OpenBabel02232411163D
Structure written by MMmdl.
 42 45  0  0  0  0  0  0  0  0999 V2000
    3.6720  -49.8590    5.8640 O   0  0  0  0  0  0  0  0  0  0  0  0
    2.9370  -49.0350    6.4440 C   0  0  0  0  0  0  0  0  0  0  0  0
    3.2980  -48.0320    7.0730 O   0  5  0  0  0  0  0  0  0  0  0  0
    1.4320  -49.3630    6.3700 C   0  0  0  0  0  0  0  0  0  0  0  0
   -0.3850  -50.7480    6.5420 C   0  0  0  0  0  0  0  0  0  0  0  0
   -1.2730  -51.8140    6.7700 C   0  0  0  0  0  0  0  0  0  0  0  0
   -2.6130  -51.6010    6.4820 C   0  0  0  0  0  0  0  0  0  0  0  0
   -3.0680  -50.3600    5.9750 C   0  0  0  0  0  0  0  0  0  0  0  0
   -2.1960  -49.3040    5.7520 C   0  0  0  0  0  0  0  0  0  0  0  0
   -0.8310  -49.4740    6.0380 C   0  0  0  0  0  0  0  0  0  0  0  0
    0.3340  -48.6190    5.9530 C   0  0  0  0  0  0  0  0  0  0  0  0
    0.2780  -47.2080    5.4880 C   0  0  0  0  0  0  0  0  0  0  0  0
    0.2300  -46.1870    6.6390 C   0  0  0  0  0  0  0  0  0  0  0  0
   -0.9550  -46.3440    7.5860 C   0  0  0  0  0  0  0  0  0  0  0  0
   -2.1190  -45.7670    6.8780 O   0  0  0  0  0  0  0  0  0  0  0  0
   -3.3090  -45.7580    7.5380 C   0  0  0  0  0  0  0  0  0  0  0  0
   -5.8950  -45.5870    8.7660 C   0  0  0  0  0  0  0  0  0  0  0  0
   -4.8670  -46.3220    9.3290 C   0  0  0  0  0  0  0  0  0  0  0  0
   -3.5850  -46.4110    8.7410 C   0  0  0  0  0  0  0  0  0  0  0  0
   -0.9300  -52.7710    7.1610 H   0  0  0  0  0  0  0  0  0  0  0  0
   -3.3390  -52.3980    6.6490 H   0  0  0  0  0  0  0  0  0  0  0  0
   -4.1310  -50.2430    5.7600 H   0  0  0  0  0  0  0  0  0  0  0  0
   -2.5740  -48.3570    5.3650 H   0  0  0  0  0  0  0  0  0  0  0  0
   -0.6430  -47.0740    4.8620 H   0  0  0  0  0  0  0  0  0  0  0  0
    1.1700  -46.9700    4.8580 H   0  0  0  0  0  0  0  0  0  0  0  0
    1.1570  -46.2990    7.2560 H   0  0  0  0  0  0  0  0  0  0  0  0
    0.1950  -45.1600    6.2080 H   0  0  0  0  0  0  0  0  0  0  0  0
   -0.8230  -45.7250    8.4990 H   0  0  0  0  0  0  0  0  0  0  0  0
   -1.1960  -47.4070    7.7970 H   0  0  0  0  0  0  0  0  0  0  0  0
   -2.8440  -47.0130    9.2560 H   0  0  0  0  0  0  0  0  0  0  0  0
   -5.0510  -46.8630   10.2610 H   0  0  0  0  0  0  0  0  0  0  0  0
   -6.8740  -45.5150    9.2260 H   0  0  0  0  0  0  0  0  0  0  0  0
    1.0020  -50.6540    6.7400 N   0  0  0  0  0  0  0  0  0  0  0  0
    1.5740  -51.4250    7.0630 H   0  0  0  0  0  0  0  0  0  0  0  0
   -5.7270  -43.7880    5.5690 C   0  0  0  0  0  0  0  0  0  0  0  0
   -6.4610  -44.1850    6.7190 N   0  0  0  0  0  0  0  0  0  0  0  0
   -5.6190  -44.9450    7.5390 C   0  0  0  0  0  0  0  0  0  0  0  0
   -4.3360  -45.0080    6.9000 C   0  0  0  0  0  0  0  0  0  0  0  0
   -4.4370  -44.2710    5.6690 C   0  0  0  0  0  0  0  0  0  0  0  0
   -7.4400  -44.0080    6.8670 H   0  0  0  0  0  0  0  0  0  0  0  0
   -3.6500  -44.1340    4.9530 H   0  0  0  0  0  0  0  0  0  0  0  0
   -6.1890  -43.1990    4.7990 H   0  0  0  0  0  0  0  0  0  0  0  0
  1  2  2  0  0  0  0
  2  3  1  0  0  0  0
  2  4  1  0  0  0  0
  4 11  2  0  0  0  0
  4 33  1  0  0  0  0
  5  6  2  0  0  0  0
  5 10  1  0  0  0  0
  5 33  1  0  0  0  0
  6  7  1  0  0  0  0
  6 20  1  0  0  0  0
  7  8  2  0  0  0  0
  7 21  1  0  0  0  0
  8  9  1  0  0  0  0
  8 22  1  0  0  0  0
  9 10  2  0  0  0  0
  9 23  1  0  0  0  0
 10 11  1  0  0  0  0
 11 12  1  0  0  0  0
 12 24  1  0  0  0  0
 12 25  1  0  0  0  0
 12 13  1  0  0  0  0
 13 14  1  0  0  0  0
 13 26  1  0  0  0  0
 13 27  1  0  0  0  0
 14 15  1  0  0  0  0
 14 28  1  0  0  0  0
 14 29  1  0  0  0  0
 15 16  1  0  0  0  0
 16 19  2  0  0  0  0
 16 38  1  0  0  0  0
 17 18  2  0  0  0  0
 17 32  1  0  0  0  0
 17 37  1  0  0  0  0
 18 19  1  0  0  0  0
 18 31  1  0  0  0  0
 19 30  1  0  0  0  0
 33 34  1  0  0  0  0
 35 36  1  0  0  0  0
 35 39  2  0  0  0  0
 35 42  1  0  0  0  0
 36 37  1  0  0  0  0
 36 40  1  0  0  0  0
 37 38  2  0  0  0  0
 38 39  1  0  0  0  0
 39 41  1  0  0  0  0
M  CHG  1   3  -1
M  END
$$$$
