18637-1
 OpenBabel02232411163D
Structure written by MMmdl.
 53 54  0  0  0  0  0  0  0  0999 V2000
   24.4960   10.7130   30.7630 C   0  0  0  0  0  0  0  0  0  0  0  0
   23.1840   11.1300   30.1310 C   0  0  0  0  0  0  0  0  0  0  0  0
   22.1040   11.1970   31.1360 O   0  0  0  0  0  0  0  0  0  0  0  0
   21.5020   10.0530   31.5380 C   0  0  0  0  0  0  0  0  0  0  0  0
   21.9570    8.8620   31.0890 N   0  0  0  0  0  0  0  0  0  0  0  0
   21.2520    7.7240   31.4540 C   0  0  0  0  0  0  0  0  0  0  0  0
   20.1230    7.7700   32.2670 C   0  0  0  0  0  0  0  0  0  0  0  0
   19.6550    9.0240   32.7390 C   0  0  0  0  0  0  0  0  0  0  0  0
   18.5190    9.0760   33.5070 N   0  0  0  0  0  0  0  0  0  0  0  0
   20.3620   10.2170   32.3820 C   0  0  0  0  0  0  0  0  0  0  0  0
   19.9750   11.5160   32.7700 C   0  0  0  0  0  0  0  0  0  0  0  0
   19.7050   12.6090   33.0510 N   0  0  0  0  0  0  0  0  0  0  0  0
   21.8110    6.5560   30.8920 N   0  0  0  0  0  0  0  0  0  0  0  0
   21.2020    5.2800   30.8270 C   0  0  0  0  0  0  0  0  0  0  0  0
   20.1330    5.0420   31.3480 O   0  0  0  0  0  0  0  0  0  0  0  0
   21.9800    4.2790   29.9840 C   0  0  0  0  0  0  0  0  0  0  0  0
   23.3070    3.9150   30.5800 C   0  0  0  0  0  0  0  0  0  0  0  0
   24.4500    4.7100   30.3350 C   0  0  0  0  0  0  0  0  0  0  0  0
   24.1910    5.7960   29.5110 O   0  0  0  0  0  0  0  0  0  0  0  0
   25.2510    6.7670   29.3080 C   0  0  0  0  0  0  0  0  0  0  0  0
   25.6990    4.3930   30.8720 C   0  0  0  0  0  0  0  0  0  0  0  0
   25.8400    3.2490   31.6780 C   0  0  0  0  0  0  0  0  0  0  0  0
   24.7020    2.4240   31.9070 C   0  0  0  0  0  0  0  0  0  0  0  0
   23.4570    2.7680   31.3670 C   0  0  0  0  0  0  0  0  0  0  0  0
   24.9280    1.3220   32.7110 O   0  0  0  0  0  0  0  0  0  0  0  0
   24.0110    0.2070   32.5300 C   0  0  0  0  0  0  0  0  0  0  0  0
   27.1420    2.9400   32.1670 N   0  0  0  0  0  0  0  0  0  0  0  0
   27.4680    2.3920   33.4390 C   0  0  0  0  0  0  0  0  0  0  0  0
   26.6030    2.0520   34.2210 O   0  0  0  0  0  0  0  0  0  0  0  0
   28.9460    2.2840   33.6680 C   0  0  0  0  0  0  0  0  0  0  0  0
   24.4400    9.6730   31.1650 H   0  0  0  0  0  0  0  0  0  0  0  0
   24.7830   11.4030   31.5830 H   0  0  0  0  0  0  0  0  0  0  0  0
   25.3000   10.7300   29.9860 H   0  0  0  0  0  0  0  0  0  0  0  0
   23.1950   12.1980   29.8050 H   0  0  0  0  0  0  0  0  0  0  0  0
   22.8790   10.4470   29.3070 H   0  0  0  0  0  0  0  0  0  0  0  0
   19.5780    6.8600   32.5280 H   0  0  0  0  0  0  0  0  0  0  0  0
   18.1280    9.9650   33.8180 H   0  0  0  0  0  0  0  0  0  0  0  0
   18.0190    8.2090   33.7820 H   0  0  0  0  0  0  0  0  0  0  0  0
   22.7270    6.6920   30.3960 H   0  0  0  0  0  0  0  0  0  0  0  0
   21.3580    3.3570   29.8550 H   0  0  0  0  0  0  0  0  0  0  0  0
   22.1500    4.7370   28.9710 H   0  0  0  0  0  0  0  0  0  0  0  0
   26.0720    6.3000   28.7220 H   0  0  0  0  0  0  0  0  0  0  0  0
   25.6080    7.1640   30.2820 H   0  0  0  0  0  0  0  0  0  0  0  0
   24.7240    7.5530   28.7210 H   0  0  0  0  0  0  0  0  0  0  0  0
   26.5720    5.0140   30.6580 H   0  0  0  0  0  0  0  0  0  0  0  0
   22.5880    2.1290   31.5430 H   0  0  0  0  0  0  0  0  0  0  0  0
   24.5100   -0.6030   33.1120 H   0  0  0  0  0  0  0  0  0  0  0  0
   23.0160    0.4520   32.9620 H   0  0  0  0  0  0  0  0  0  0  0  0
   23.9430   -0.0670   31.4540 H   0  0  0  0  0  0  0  0  0  0  0  0
   27.9170    3.3400   31.6010 H   0  0  0  0  0  0  0  0  0  0  0  0
   29.1770    1.8170   34.6580 H   0  0  0  0  0  0  0  0  0  0  0  0
   29.4410    1.6600   32.8770 H   0  0  0  0  0  0  0  0  0  0  0  0
   29.4390    3.2910   33.6450 H   0  0  0  0  0  0  0  0  0  0  0  0
  1  2  1  0  0  0  0
  1 31  1  0  0  0  0
  1 32  1  0  0  0  0
  1 33  1  0  0  0  0
  2  3  1  0  0  0  0
  2 34  1  0  0  0  0
  2 35  1  0  0  0  0
  3  4  1  0  0  0  0
  4 10  2  0  0  0  0
  4  5  1  0  0  0  0
  5  6  2  0  0  0  0
  6  7  1  0  0  0  0
  6 13  1  0  0  0  0
  7  8  2  0  0  0  0
  7 36  1  0  0  0  0
  8  9  1  0  0  0  0
  8 10  1  0  0  0  0
  9 37  1  0  0  0  0
  9 38  1  0  0  0  0
 10 11  1  0  0  0  0
 11 12  3  0  0  0  0
 13 14  1  0  0  0  0
 13 39  1  0  0  0  0
 14 15  2  0  0  0  0
 14 16  1  0  0  0  0
 16 17  1  0  0  0  0
 16 40  1  0  0  0  0
 16 41  1  0  0  0  0
 17 24  2  0  0  0  0
 17 18  1  0  0  0  0
 18 19  1  0  0  0  0
 18 21  2  0  0  0  0
 19 20  1  0  0  0  0
 20 42  1  0  0  0  0
 20 43  1  0  0  0  0
 20 44  1  0  0  0  0
 21 22  1  0  0  0  0
 21 45  1  0  0  0  0
 22 23  2  0  0  0  0
 22 27  1  0  0  0  0
 23 24  1  0  0  0  0
 23 25  1  0  0  0  0
 24 46  1  0  0  0  0
 25 26  1  0  0  0  0
 26 47  1  0  0  0  0
 26 48  1  0  0  0  0
 26 49  1  0  0  0  0
 27 28  1  0  0  0  0
 27 50  1  0  0  0  0
 28 29  2  0  0  0  0
 28 30  1  0  0  0  0
 30 51  1  0  0  0  0
 30 52  1  0  0  0  0
 30 53  1  0  0  0  0
M  END
$$$$
