17124-1
                    3D
 Schrodinger Suite 2022-3.
 46 47  0  0  1  0  0  0  0  0999 V2000
   25.8530    4.7540   30.6680 C   0  0  0  0  0  0  0  0  0  0  0  0
   24.5410    4.9600   30.2290 C   0  0  0  0  0  0  0  0  0  0  0  0
   23.4900    4.0710   30.5720 C   0  0  0  0  0  0  0  0  0  0  0  0
   23.7910    2.9660   31.3720 C   0  0  0  0  0  0  0  0  0  0  0  0
   25.1020    2.7570   31.8280 C   0  0  0  0  0  0  0  0  0  0  0  0
   26.1330    3.6510   31.4710 C   0  0  0  0  0  0  0  0  0  0  0  0
   22.0960    4.2840   30.0590 C   0  0  0  0  0  0  0  0  0  0  0  0
   21.2690    5.2610   30.8840 C   0  0  0  0  0  0  0  0  0  0  0  0
   21.8280    6.5570   30.9350 N   0  0  0  0  0  0  0  0  0  0  0  0
   21.2590    7.7130   31.5110 C   0  0  0  0  0  0  0  0  0  0  0  0
   20.2030    4.9850   31.3920 O   0  0  0  0  0  0  0  0  0  0  0  0
   22.0000    8.8440   31.2000 N   0  0  0  0  0  0  0  0  0  0  0  0
   21.5340   10.0370   31.6340 C   0  0  0  0  0  0  0  0  0  0  0  0
   20.3520   10.2080   32.4150 C   0  0  0  0  0  0  0  0  0  0  0  0
   19.6300    9.0160   32.7490 C   0  0  0  0  0  0  0  0  0  0  0  0
   20.1020    7.7600   32.2820 C   0  0  0  0  0  0  0  0  0  0  0  0
   25.5230    1.7270   32.6340 O   0  0  0  0  0  0  0  0  0  0  0  0
   24.5740    0.6720   32.9410 C   0  0  0  0  0  0  0  0  0  0  0  0
   24.1460    6.0070   29.4060 O   0  0  0  0  0  0  0  0  0  0  0  0
   25.0490    7.1420   29.2850 C   0  0  0  0  0  0  0  0  0  0  0  0
   18.4790    9.0710   33.4920 N   0  0  0  0  0  0  0  0  0  0  0  0
   19.9510   11.5110   32.7760 C   0  0  0  0  0  0  0  0  0  0  0  0
   22.1930   11.1700   31.3010 O   0  0  0  0  0  0  0  0  0  0  0  0
   23.4570   11.0730   30.5440 C   0  0  0  0  0  0  0  0  0  0  0  0
   23.1780   10.8880   29.0670 C   0  0  0  0  0  0  0  0  0  0  0  0
   27.9200    3.3690   32.0530 Br  0  0  0  0  0  0  0  0  0  0  0  0
   19.6700   12.6070   33.0320 N   0  0  0  0  0  0  0  0  0  0  0  0
   26.6580    5.4410   30.3780 H   0  0  0  0  0  0  0  0  0  0  0  0
   23.0000    2.2590   31.6340 H   0  0  0  0  0  0  0  0  0  0  0  0
   19.5410    6.8540   32.5160 H   0  0  0  0  0  0  0  0  0  0  0  0
   21.5540    3.3020   30.0300 H   0  0  0  0  0  0  0  0  0  0  0  0
   22.1510    4.6890   29.0100 H   0  0  0  0  0  0  0  0  0  0  0  0
   22.7310    6.7240   30.4210 H   0  0  0  0  0  0  0  0  0  0  0  0
   23.7450    1.0690   33.5650 H   0  0  0  0  0  0  0  0  0  0  0  0
   24.2090    0.1950   32.0050 H   0  0  0  0  0  0  0  0  0  0  0  0
   25.2120   -0.0350   33.5250 H   0  0  0  0  0  0  0  0  0  0  0  0
   25.3650    7.5050   30.2880 H   0  0  0  0  0  0  0  0  0  0  0  0
   24.3970    7.8890   28.7770 H   0  0  0  0  0  0  0  0  0  0  0  0
   25.9140    6.8540   28.6510 H   0  0  0  0  0  0  0  0  0  0  0  0
   17.9800    8.2030   33.7680 H   0  0  0  0  0  0  0  0  0  0  0  0
   18.0890    9.9590   33.8050 H   0  0  0  0  0  0  0  0  0  0  0  0
   24.0830   10.2510   30.9610 H   0  0  0  0  0  0  0  0  0  0  0  0
   23.8820   12.0810   30.7690 H   0  0  0  0  0  0  0  0  0  0  0  0
   24.1440   10.9150   28.5040 H   0  0  0  0  0  0  0  0  0  0  0  0
   22.6850    9.9080   28.8680 H   0  0  0  0  0  0  0  0  0  0  0  0
   22.5270   11.7010   28.6730 H   0  0  0  0  0  0  0  0  0  0  0  0
  1  2  1  0  0  0  0
  1  6  2  0  0  0  0
  1 28  1  0  0  0  0
  2  3  2  0  0  0  0
  2 19  1  0  0  0  0
  3  4  1  0  0  0  0
  3  7  1  0  0  0  0
  4  5  2  0  0  0  0
  4 29  1  0  0  0  0
  5  6  1  0  0  0  0
  5 17  1  0  0  0  0
  6 26  1  0  0  0  0
  7  8  1  0  0  0  0
  7 31  1  0  0  0  0
  7 32  1  0  0  0  0
  8  9  1  0  0  0  0
  8 11  2  0  0  0  0
  9 10  1  0  0  0  0
  9 33  1  0  0  0  0
 10 12  1  0  0  0  0
 10 16  2  0  0  0  0
 12 13  2  0  0  0  0
 13 14  1  0  0  0  0
 13 23  1  0  0  0  0
 14 15  2  0  0  0  0
 14 22  1  0  0  0  0
 15 16  1  0  0  0  0
 15 21  1  0  0  0  0
 16 30  1  0  0  0  0
 17 18  1  0  0  0  0
 18 34  1  0  0  0  0
 18 35  1  0  0  0  0
 18 36  1  0  0  0  0
 19 20  1  0  0  0  0
 20 37  1  0  0  0  0
 20 38  1  0  0  0  0
 20 39  1  0  0  0  0
 21 40  1  0  0  0  0
 21 41  1  0  0  0  0
 22 27  3  0  0  0  0
 23 24  1  0  0  0  0
 24 25  1  0  0  0  0
 24 42  1  0  0  0  0
 24 43  1  0  0  0  0
 25 44  1  0  0  0  0
 25 45  1  0  0  0  0
 25 46  1  0  0  0  0
M  END
$$$$
