p38a_2f
 OpenBabel02232411163D
Structure written by MMmdl.
 46 49  0  0  0  0  0  0  0  0999 V2000
   32.4330   39.8110   27.3540 C   0  0  0  0  0  0  0  0  0  0  0  0
   32.3600   39.1530   28.7370 C   0  0  0  0  0  0  0  0  0  0  0  0
   34.6330   38.3530   28.5820 C   0  0  0  0  0  0  0  0  0  0  0  0
   34.8220   38.9700   27.1900 C   0  0  0  0  0  0  0  0  0  0  0  0
   37.1910   35.8280   16.3050 C   0  0  0  0  0  0  0  0  0  0  0  0
   33.6610   39.0860   29.3630 O   0  0  0  0  0  0  0  0  0  0  0  0
   34.2190   35.2040   21.2950 C   0  0  0  0  0  0  0  0  0  0  0  0
   35.9810   35.5910   16.9590 C   0  0  0  0  0  0  0  0  0  0  0  0
   33.8760   39.2180   23.9920 C   0  0  0  0  0  0  0  0  0  0  0  0
   33.4580   39.0680   26.4720 C   0  0  0  0  0  0  0  0  0  0  0  0
   34.3360   38.0780   21.5290 C   0  0  0  0  0  0  0  0  0  0  0  0
   34.6140   37.4600   20.2690 C   0  0  0  0  0  0  0  0  0  0  0  0
   38.3800   36.1420   16.9660 C   0  0  0  0  0  0  0  0  0  0  0  0
   38.3530   36.2340   18.3610 C   0  0  0  0  0  0  0  0  0  0  0  0
   37.1750   36.0000   19.0710 C   0  0  0  0  0  0  0  0  0  0  0  0
   34.0470   37.2740   22.6730 C   0  0  0  0  0  0  0  0  0  0  0  0
   34.3600   39.4890   21.7120 C   0  0  0  0  0  0  0  0  0  0  0  0
   34.5700   36.1070   20.1790 C   0  0  0  0  0  0  0  0  0  0  0  0
   36.0070   35.7000   18.3560 C   0  0  0  0  0  0  0  0  0  0  0  0
   33.7050   35.0680   23.7730 C   0  0  0  0  0  0  0  0  0  0  0  0
   35.0550   35.3930   16.4150 H   0  0  0  0  0  0  0  0  0  0  0  0
   34.7840   35.4230   18.9750 O   0  0  0  0  0  0  0  0  0  0  0  0
   34.1440   40.0710   22.8950 N   0  0  0  0  0  0  0  0  0  0  0  0
   34.1150   33.9980   21.2420 O   0  0  0  0  0  0  0  0  0  0  0  0
   33.9840   35.8790   22.5550 N   0  0  0  0  0  0  0  0  0  0  0  0
   33.8280   37.8400   23.9060 N   0  0  0  0  0  0  0  0  0  0  0  0
   33.6020   39.8230   25.1910 N   0  0  0  0  0  0  0  0  0  0  0  0
   31.4290   39.7750   26.8680 H   0  0  0  0  0  0  0  0  0  0  0  0
   32.7320   40.8810   27.4640 H   0  0  0  0  0  0  0  0  0  0  0  0
   31.7840   39.7830   29.4530 H   0  0  0  0  0  0  0  0  0  0  0  0
   31.9370   38.1240   28.6660 H   0  0  0  0  0  0  0  0  0  0  0  0
   34.3070   37.2900   28.5040 H   0  0  0  0  0  0  0  0  0  0  0  0
   35.5570   38.4530   29.1970 H   0  0  0  0  0  0  0  0  0  0  0  0
   35.2770   39.9850   27.2820 H   0  0  0  0  0  0  0  0  0  0  0  0
   35.5160   38.3270   26.5970 H   0  0  0  0  0  0  0  0  0  0  0  0
   37.2120   35.7620   14.9770 F   0  0  0  0  0  0  0  0  0  0  0  0
   33.0760   38.0320   26.2480 H   0  0  0  0  0  0  0  0  0  0  0  0
   34.8830   38.0970   19.4210 H   0  0  0  0  0  0  0  0  0  0  0  0
   39.2680   36.4940   18.8950 H   0  0  0  0  0  0  0  0  0  0  0  0
   37.1660   36.0830   20.1560 H   0  0  0  0  0  0  0  0  0  0  0  0
   34.5620   40.1460   20.8490 H   0  0  0  0  0  0  0  0  0  0  0  0
   34.4880   35.2670   24.5540 H   0  0  0  0  0  0  0  0  0  0  0  0
   32.7030   35.3470   24.2000 H   0  0  0  0  0  0  0  0  0  0  0  0
   33.7060   33.9760   23.5220 H   0  0  0  0  0  0  0  0  0  0  0  0
   33.7130   40.8540   25.2810 H   0  0  0  0  0  0  0  0  0  0  0  0
   39.2990   36.3520   16.4260 H   0  0  0  0  0  0  0  0  0  0  0  0
  1  2  1  0  0  0  0
  1 10  1  0  0  0  0
  1 28  1  0  0  0  0
  1 29  1  0  0  0  0
  2  6  1  0  0  0  0
  2 30  1  0  0  0  0
  2 31  1  0  0  0  0
  3  4  1  0  0  0  0
  3  6  1  0  0  0  0
  3 32  1  0  0  0  0
  3 33  1  0  0  0  0
  4 10  1  0  0  0  0
  4 34  1  0  0  0  0
  4 35  1  0  0  0  0
  5  8  2  0  0  0  0
  5 13  1  0  0  0  0
  5 36  1  0  0  0  0
  7 18  1  0  0  0  0
  7 24  2  0  0  0  0
  7 25  1  0  0  0  0
  8 19  1  0  0  0  0
  8 21  1  0  0  0  0
  9 23  2  0  0  0  0
  9 26  1  0  0  0  0
  9 27  1  0  0  0  0
 10 27  1  0  0  0  0
 10 37  1  0  0  0  0
 11 12  1  0  0  0  0
 11 16  1  0  0  0  0
 11 17  2  0  0  0  0
 12 18  2  0  0  0  0
 12 38  1  0  0  0  0
 13 14  2  0  0  0  0
 13 46  1  0  0  0  0
 14 15  1  0  0  0  0
 14 39  1  0  0  0  0
 15 19  2  0  0  0  0
 15 40  1  0  0  0  0
 16 25  1  0  0  0  0
 16 26  2  0  0  0  0
 17 23  1  0  0  0  0
 17 41  1  0  0  0  0
 18 22  1  0  0  0  0
 19 22  1  0  0  0  0
 20 25  1  0  0  0  0
 20 42  1  0  0  0  0
 20 43  1  0  0  0  0
 20 44  1  0  0  0  0
 27 45  1  0  0  0  0
M  END
$$$$
