28
 OpenBabel02232411153D
Structure written by MMmdl.
 53 56  0  0  0  0  0  0  0  0999 V2000
    1.6560   28.9480    6.8050 C   0  0  0  0  0  0  0  0  0  0  0  0
   -1.7460   31.5940    8.0590 C   0  0  0  0  0  0  0  0  0  0  0  0
   -0.3400   26.0690    8.8800 C   0  0  0  0  0  0  0  0  0  0  0  0
   -1.0480   25.3730   10.0490 C   0  0  0  0  0  0  0  0  0  0  0  0
   -0.8240   23.8530    9.8710 C   0  0  0  0  0  0  0  0  0  0  0  0
   -1.3730   23.0580   11.0640 C   0  0  0  0  0  0  0  0  0  0  0  0
   -0.7990   23.5670   12.3950 C   0  0  0  0  0  0  0  0  0  0  0  0
   -1.0670   25.0700   12.5750 C   0  0  0  0  0  0  0  0  0  0  0  0
   -0.5020   25.8790   11.3990 C   0  0  0  0  0  0  0  0  0  0  0  0
    4.1620   25.5020    8.0430 C   0  0  0  0  0  0  0  0  0  0  0  0
    5.0620   25.0120    7.0860 C   0  0  0  0  0  0  0  0  0  0  0  0
    5.2400   25.7140    5.8900 C   0  0  0  0  0  0  0  0  0  0  0  0
    4.5090   26.8670    5.6300 C   0  0  0  0  0  0  0  0  0  0  0  0
    0.9290   27.9930    7.5080 N   0  0  0  0  0  0  0  0  0  0  0  0
   -0.2450   28.3390    8.0990 C   0  0  0  0  0  0  0  0  0  0  0  0
   -0.9230   27.4370    8.8220 O   0  0  0  0  0  0  0  0  0  0  0  0
   -0.7390   29.6630    7.9640 C   0  0  0  0  0  0  0  0  0  0  0  0
   -1.8640   30.3260    8.4630 N   0  0  0  0  0  0  0  0  0  0  0  0
   -0.5450   31.8130    7.2950 N   0  0  0  0  0  0  0  0  0  0  0  0
    0.0970   30.5830    7.2100 C   0  0  0  0  0  0  0  0  0  0  0  0
    1.2840   30.2590    6.5950 N   0  0  0  0  0  0  0  0  0  0  0  0
    2.8680   28.5290    6.2480 N   0  0  0  0  0  0  0  0  0  0  0  0
    3.5810   27.3430    6.5850 C   0  0  0  0  0  0  0  0  0  0  0  0
    3.4360   26.6670    7.8100 C   0  0  0  0  0  0  0  0  0  0  0  0
   -2.4300   32.4080    8.2790 H   0  0  0  0  0  0  0  0  0  0  0  0
    0.7560   26.1460    9.0600 H   0  0  0  0  0  0  0  0  0  0  0  0
   -0.5720   25.6080    7.8990 H   0  0  0  0  0  0  0  0  0  0  0  0
   -2.1430   25.5860   10.0160 H   0  0  0  0  0  0  0  0  0  0  0  0
   -1.3350   23.5130    8.9430 H   0  0  0  0  0  0  0  0  0  0  0  0
    0.2710   23.6490    9.7780 H   0  0  0  0  0  0  0  0  0  0  0  0
   -2.4790   23.1570   11.0910 H   0  0  0  0  0  0  0  0  0  0  0  0
   -1.1130   21.9810   10.9420 H   0  0  0  0  0  0  0  0  0  0  0  0
   -1.2630   23.0050   13.2370 H   0  0  0  0  0  0  0  0  0  0  0  0
    0.3020   23.3920   12.4070 H   0  0  0  0  0  0  0  0  0  0  0  0
   -2.1630   25.2450   12.6690 H   0  0  0  0  0  0  0  0  0  0  0  0
   -0.5800   25.4160   13.5160 H   0  0  0  0  0  0  0  0  0  0  0  0
    0.6120   25.7900   11.4160 H   0  0  0  0  0  0  0  0  0  0  0  0
   -0.7720   26.9520   11.5270 H   0  0  0  0  0  0  0  0  0  0  0  0
    4.0170   24.9810    8.9990 H   0  0  0  0  0  0  0  0  0  0  0  0
    5.9550   25.3840    5.1280 H   0  0  0  0  0  0  0  0  0  0  0  0
    4.6610   27.4010    4.6910 H   0  0  0  0  0  0  0  0  0  0  0  0
   -0.2630   32.6870    6.8270 H   0  0  0  0  0  0  0  0  0  0  0  0
    3.3850   29.1780    5.6080 H   0  0  0  0  0  0  0  0  0  0  0  0
    2.7610   27.0380    8.5820 H   0  0  0  0  0  0  0  0  0  0  0  0
    5.9720   23.6080    7.4960 S   0  0  0  0  0  0  0  0  0  0  0  0
    6.9040   24.0350    8.5370 O   0  0  0  0  0  0  0  0  0  0  0  0
    5.0770   22.4800    7.7640 O   0  0  0  0  0  0  0  0  0  0  0  0
    6.9470   23.1220    6.1790 N   0  0  0  0  0  0  0  0  0  0  0  0
    7.7140   23.7420    5.8700 H   0  0  0  0  0  0  0  0  0  0  0  0
    6.3230   22.4220    5.0310 C   0  0  0  0  0  0  0  0  0  0  0  0
    7.1350   22.0380    4.3530 H   0  0  0  0  0  0  0  0  0  0  0  0
    5.7330   21.5360    5.3830 H   0  0  0  0  0  0  0  0  0  0  0  0
    5.6600   23.0930    4.4210 H   0  0  0  0  0  0  0  0  0  0  0  0
  1 14  2  0  0  0  0
  1 21  1  0  0  0  0
  1 22  1  0  0  0  0
  2 18  2  0  0  0  0
  2 19  1  0  0  0  0
  2 25  1  0  0  0  0
  3  4  1  0  0  0  0
  3 16  1  0  0  0  0
  3 26  1  0  0  0  0
  3 27  1  0  0  0  0
  4  5  1  0  0  0  0
  4  9  1  0  0  0  0
  4 28  1  0  0  0  0
  5  6  1  0  0  0  0
  5 29  1  0  0  0  0
  5 30  1  0  0  0  0
  6  7  1  0  0  0  0
  6 31  1  0  0  0  0
  6 32  1  0  0  0  0
  7  8  1  0  0  0  0
  7 33  1  0  0  0  0
  7 34  1  0  0  0  0
  8  9  1  0  0  0  0
  8 35  1  0  0  0  0
  8 36  1  0  0  0  0
  9 37  1  0  0  0  0
  9 38  1  0  0  0  0
 10 11  2  0  0  0  0
 10 24  1  0  0  0  0
 10 39  1  0  0  0  0
 11 12  1  0  0  0  0
 11 45  1  0  0  0  0
 12 13  2  0  0  0  0
 12 40  1  0  0  0  0
 13 23  1  0  0  0  0
 13 41  1  0  0  0  0
 14 15  1  0  0  0  0
 15 16  1  0  0  0  0
 15 17  2  0  0  0  0
 17 18  1  0  0  0  0
 17 20  1  0  0  0  0
 19 20  1  0  0  0  0
 19 42  1  0  0  0  0
 20 21  2  0  0  0  0
 22 23  1  0  0  0  0
 22 43  1  0  0  0  0
 23 24  2  0  0  0  0
 24 44  1  0  0  0  0
 45 46  2  0  0  0  0
 45 47  2  0  0  0  0
 45 48  1  0  0  0  0
 48 49  1  0  0  0  0
 48 50  1  0  0  0  0
 50 51  1  0  0  0  0
 50 52  1  0  0  0  0
 50 53  1  0  0  0  0
M  END
$$$$
