p38a_3flw
 OpenBabel02232411163D
Structure written by MMmdl.
 49 51  0  0  0  0  0  0  0  0999 V2000
   38.3400   36.5970   17.0770 C   0  0  0  0  0  0  0  0  0  0  0  0
   37.6900   36.7640   15.8460 C   0  0  0  0  0  0  0  0  0  0  0  0
   32.6330   39.6860   27.1550 C   0  0  0  0  0  0  0  0  0  0  0  0
   34.0160   39.9830   27.7410 C   0  0  0  0  0  0  0  0  0  0  0  0
   31.2530   38.1160   25.7050 C   0  0  0  0  0  0  0  0  0  0  0  0
   33.4310   34.8300   23.3070 C   0  0  0  0  0  0  0  0  0  0  0  0
   38.0890   35.9790   19.3350 F   0  0  0  0  0  0  0  0  0  0  0  0
   37.5620   36.1150   18.1260 C   0  0  0  0  0  0  0  0  0  0  0  0
   38.3810   37.2860   14.8360 F   0  0  0  0  0  0  0  0  0  0  0  0
   36.3460   36.4520   15.6350 C   0  0  0  0  0  0  0  0  0  0  0  0
   35.5900   35.9490   16.6990 C   0  0  0  0  0  0  0  0  0  0  0  0
   36.2060   35.7700   17.9400 C   0  0  0  0  0  0  0  0  0  0  0  0
   35.5070   35.1050   18.9540 O   0  0  0  0  0  0  0  0  0  0  0  0
   35.0380   35.9010   19.9970 C   0  0  0  0  0  0  0  0  0  0  0  0
   35.0450   37.2520   20.0790 C   0  0  0  0  0  0  0  0  0  0  0  0
   34.5330   37.8740   21.2690 C   0  0  0  0  0  0  0  0  0  0  0  0
   34.5020   39.2830   21.4580 C   0  0  0  0  0  0  0  0  0  0  0  0
   34.0460   39.8640   22.5780 N   0  0  0  0  0  0  0  0  0  0  0  0
   34.4860   34.9980   21.0410 C   0  0  0  0  0  0  0  0  0  0  0  0
   34.4270   33.7900   20.9630 O   0  0  0  0  0  0  0  0  0  0  0  0
   33.9990   35.6700   22.2150 N   0  0  0  0  0  0  0  0  0  0  0  0
   34.0320   37.0700   22.3360 C   0  0  0  0  0  0  0  0  0  0  0  0
   33.5760   37.6320   23.5010 N   0  0  0  0  0  0  0  0  0  0  0  0
   33.5630   39.0100   23.5910 C   0  0  0  0  0  0  0  0  0  0  0  0
   32.9920   39.5870   24.7030 N   0  0  0  0  0  0  0  0  0  0  0  0
   32.6380   38.7720   25.9160 C   0  0  0  0  0  0  0  0  0  0  0  0
   31.0900   36.8400   26.5420 C   0  0  0  0  0  0  0  0  0  0  0  0
   30.7300   37.1640   27.9030 O   0  0  0  0  0  0  0  0  0  0  0  0
   34.8700   40.7080   26.8370 O   0  0  0  0  0  0  0  0  0  0  0  0
   39.3890   36.8690   17.2170 H   0  0  0  0  0  0  0  0  0  0  0  0
   32.0210   39.1720   27.9460 H   0  0  0  0  0  0  0  0  0  0  0  0
   32.1280   40.6500   26.9100 H   0  0  0  0  0  0  0  0  0  0  0  0
   33.9030   40.6030   28.6630 H   0  0  0  0  0  0  0  0  0  0  0  0
   34.5940   39.0520   27.9430 H   0  0  0  0  0  0  0  0  0  0  0  0
   30.4470   38.8390   25.9660 H   0  0  0  0  0  0  0  0  0  0  0  0
   31.1290   37.8360   24.6290 H   0  0  0  0  0  0  0  0  0  0  0  0
   32.9690   35.4660   24.1110 H   0  0  0  0  0  0  0  0  0  0  0  0
   32.6290   34.1620   22.8930 H   0  0  0  0  0  0  0  0  0  0  0  0
   34.2400   34.2060   23.7690 H   0  0  0  0  0  0  0  0  0  0  0  0
   35.8730   36.6100   14.6630 H   0  0  0  0  0  0  0  0  0  0  0  0
   34.5310   35.7160   16.5540 H   0  0  0  0  0  0  0  0  0  0  0  0
   35.4270   37.8940   19.2830 H   0  0  0  0  0  0  0  0  0  0  0  0
   34.8610   39.9520   20.6570 H   0  0  0  0  0  0  0  0  0  0  0  0
   33.1020   40.6070   24.8590 H   0  0  0  0  0  0  0  0  0  0  0  0
   33.4130   37.9660   26.0500 H   0  0  0  0  0  0  0  0  0  0  0  0
   30.3020   36.1860   26.1070 H   0  0  0  0  0  0  0  0  0  0  0  0
   32.0520   36.2870   26.6520 H   0  0  0  0  0  0  0  0  0  0  0  0
   29.7230   37.0500   27.9900 H   0  0  0  0  0  0  0  0  0  0  0  0
   34.3150   41.3990   26.3570 H   0  0  0  0  0  0  0  0  0  0  0  0
  1  2  2  0  0  0  0
  1  8  1  0  0  0  0
  1 30  1  0  0  0  0
  2  9  1  0  0  0  0
  2 10  1  0  0  0  0
  3  4  1  0  0  0  0
  3 26  1  0  0  0  0
  3 31  1  0  0  0  0
  3 32  1  0  0  0  0
  4 29  1  0  0  0  0
  4 33  1  0  0  0  0
  4 34  1  0  0  0  0
  5 26  1  0  0  0  0
  5 27  1  0  0  0  0
  5 35  1  0  0  0  0
  5 36  1  0  0  0  0
  6 21  1  0  0  0  0
  6 37  1  0  0  0  0
  6 38  1  0  0  0  0
  6 39  1  0  0  0  0
  7  8  1  0  0  0  0
  8 12  2  0  0  0  0
 10 11  2  0  0  0  0
 10 40  1  0  0  0  0
 11 12  1  0  0  0  0
 11 41  1  0  0  0  0
 12 13  1  0  0  0  0
 13 14  1  0  0  0  0
 14 15  2  0  0  0  0
 14 19  1  0  0  0  0
 15 16  1  0  0  0  0
 15 42  1  0  0  0  0
 16 17  2  0  0  0  0
 16 22  1  0  0  0  0
 17 18  1  0  0  0  0
 17 43  1  0  0  0  0
 18 24  2  0  0  0  0
 19 20  2  0  0  0  0
 19 21  1  0  0  0  0
 21 22  1  0  0  0  0
 22 23  2  0  0  0  0
 23 24  1  0  0  0  0
 24 25  1  0  0  0  0
 25 26  1  0  0  0  0
 25 44  1  0  0  0  0
 26 45  1  0  0  0  0
 27 28  1  0  0  0  0
 27 46  1  0  0  0  0
 27 47  1  0  0  0  0
 28 48  1  0  0  0  0
 29 49  1  0  0  0  0
M  END
$$$$
