p38a_2z
 OpenBabel02232411163D
Structure written by MMmdl.
 45 47  0  0  0  0  0  0  0  0999 V2000
   38.2870   36.5630   17.1410 C   0  0  0  0  0  0  0  0  0  0  0  0
   34.4250   35.0700   21.1210 C   0  0  0  0  0  0  0  0  0  0  0  0
   37.4930   36.1060   18.1890 C   0  0  0  0  0  0  0  0  0  0  0  0
   33.7240   39.0860   23.7310 C   0  0  0  0  0  0  0  0  0  0  0  0
   32.8780   38.9990   26.1510 C   0  0  0  0  0  0  0  0  0  0  0  0
   34.5370   37.9440   21.3490 C   0  0  0  0  0  0  0  0  0  0  0  0
   35.0080   37.3120   20.1460 C   0  0  0  0  0  0  0  0  0  0  0  0
   37.6490   36.7360   15.9050 C   0  0  0  0  0  0  0  0  0  0  0  0
   36.2990   36.4510   15.6880 C   0  0  0  0  0  0  0  0  0  0  0  0
   35.5260   35.9770   16.7530 C   0  0  0  0  0  0  0  0  0  0  0  0
   34.0440   37.1510   22.4270 C   0  0  0  0  0  0  0  0  0  0  0  0
   34.5510   39.3520   21.5460 C   0  0  0  0  0  0  0  0  0  0  0  0
   34.9730   35.9620   20.0650 C   0  0  0  0  0  0  0  0  0  0  0  0
   36.1290   35.7960   18.0000 C   0  0  0  0  0  0  0  0  0  0  0  0
   33.4280   34.9530   23.4350 C   0  0  0  0  0  0  0  0  0  0  0  0
   38.0140   35.9570   19.3990 F   0  0  0  0  0  0  0  0  0  0  0  0
   35.4040   35.1560   19.0130 O   0  0  0  0  0  0  0  0  0  0  0  0
   34.1730   39.9340   22.6930 N   0  0  0  0  0  0  0  0  0  0  0  0
   34.3410   33.8630   21.0470 O   0  0  0  0  0  0  0  0  0  0  0  0
   33.9730   35.7530   22.3020 N   0  0  0  0  0  0  0  0  0  0  0  0
   33.6360   37.7140   23.6090 N   0  0  0  0  0  0  0  0  0  0  0  0
   33.3510   39.7000   24.9010 N   0  0  0  0  0  0  0  0  0  0  0  0
   39.3430   36.8120   17.2840 H   0  0  0  0  0  0  0  0  0  0  0  0
   33.8930   37.9530   26.6210 C   0  0  0  0  0  0  0  0  0  0  0  0
   35.3860   37.9470   19.3420 H   0  0  0  0  0  0  0  0  0  0  0  0
   35.8370   36.6060   14.7110 H   0  0  0  0  0  0  0  0  0  0  0  0
   34.4620   35.7670   16.6030 H   0  0  0  0  0  0  0  0  0  0  0  0
   34.8820   40.0150   20.7300 H   0  0  0  0  0  0  0  0  0  0  0  0
   34.0880   35.0620   24.3370 H   0  0  0  0  0  0  0  0  0  0  0  0
   32.3990   35.3170   23.7010 H   0  0  0  0  0  0  0  0  0  0  0  0
   33.3690   33.8690   23.1520 H   0  0  0  0  0  0  0  0  0  0  0  0
   33.4640   40.7280   24.9690 H   0  0  0  0  0  0  0  0  0  0  0  0
   38.3580   37.2360   14.8960 F   0  0  0  0  0  0  0  0  0  0  0  0
   32.7190   40.0950   27.2600 C   0  0  0  0  0  0  0  0  0  0  0  0
   31.4880   38.3940   25.8960 C   0  0  0  0  0  0  0  0  0  0  0  0
   33.9500   40.7940   27.5050 O   0  0  0  0  0  0  0  0  0  0  0  0
   34.0090   41.5210   26.8050 H   0  0  0  0  0  0  0  0  0  0  0  0
   31.9370   40.8290   26.9750 H   0  0  0  0  0  0  0  0  0  0  0  0
   32.4850   39.6120   28.2380 H   0  0  0  0  0  0  0  0  0  0  0  0
   31.0540   38.0110   26.8500 H   0  0  0  0  0  0  0  0  0  0  0  0
   30.7900   39.1470   25.4670 H   0  0  0  0  0  0  0  0  0  0  0  0
   31.5560   37.5310   25.1920 H   0  0  0  0  0  0  0  0  0  0  0  0
   33.5810   37.5440   27.6120 H   0  0  0  0  0  0  0  0  0  0  0  0
   33.9480   37.0930   25.9130 H   0  0  0  0  0  0  0  0  0  0  0  0
   34.9050   38.4040   26.7270 H   0  0  0  0  0  0  0  0  0  0  0  0
  1  3  2  0  0  0  0
  1  8  1  0  0  0  0
  1 23  1  0  0  0  0
  2 13  1  0  0  0  0
  2 19  2  0  0  0  0
  2 20  1  0  0  0  0
  3 14  1  0  0  0  0
  3 16  1  0  0  0  0
  4 18  2  0  0  0  0
  4 21  1  0  0  0  0
  4 22  1  0  0  0  0
  5 22  1  0  0  0  0
  5 24  1  0  0  0  0
  5 34  1  0  0  0  0
  5 35  1  0  0  0  0
  6  7  1  0  0  0  0
  6 11  1  0  0  0  0
  6 12  2  0  0  0  0
  7 13  2  0  0  0  0
  7 25  1  0  0  0  0
  8  9  2  0  0  0  0
  8 33  1  0  0  0  0
  9 10  1  0  0  0  0
  9 26  1  0  0  0  0
 10 14  2  0  0  0  0
 10 27  1  0  0  0  0
 11 20  1  0  0  0  0
 11 21  2  0  0  0  0
 12 18  1  0  0  0  0
 12 28  1  0  0  0  0
 13 17  1  0  0  0  0
 14 17  1  0  0  0  0
 15 20  1  0  0  0  0
 15 29  1  0  0  0  0
 15 30  1  0  0  0  0
 15 31  1  0  0  0  0
 22 32  1  0  0  0  0
 24 43  1  0  0  0  0
 24 44  1  0  0  0  0
 24 45  1  0  0  0  0
 34 36  1  0  0  0  0
 34 38  1  0  0  0  0
 34 39  1  0  0  0  0
 35 40  1  0  0  0  0
 35 41  1  0  0  0  0
 35 42  1  0  0  0  0
 36 37  1  0  0  0  0
M  END
$$$$
