18633-1
 OpenBabel02232411163D
Structure written by MMmdl.
 42 43  0  0  0  0  0  0  0  0999 V2000
   24.4890   11.0620   30.7790 C   0  0  0  0  0  0  0  0  0  0  0  0
   23.1450   11.2790   30.1180 C   0  0  0  0  0  0  0  0  0  0  0  0
   22.0710   11.3020   31.1340 O   0  0  0  0  0  0  0  0  0  0  0  0
   21.5010   10.1420   31.5310 C   0  0  0  0  0  0  0  0  0  0  0  0
   21.9870    8.9600   31.0850 N   0  0  0  0  0  0  0  0  0  0  0  0
   21.2970    7.8090   31.4400 C   0  0  0  0  0  0  0  0  0  0  0  0
   20.1650    7.8290   32.2480 C   0  0  0  0  0  0  0  0  0  0  0  0
   19.6670    9.0740   32.7190 C   0  0  0  0  0  0  0  0  0  0  0  0
   18.5270    9.1080   33.4820 N   0  0  0  0  0  0  0  0  0  0  0  0
   20.3510   10.2810   32.3650 C   0  0  0  0  0  0  0  0  0  0  0  0
   19.9320   11.5740   32.7420 C   0  0  0  0  0  0  0  0  0  0  0  0
   19.6380   12.6640   33.0100 N   0  0  0  0  0  0  0  0  0  0  0  0
   21.8760    6.6550   30.8620 N   0  0  0  0  0  0  0  0  0  0  0  0
   21.3520    5.3360   30.8630 C   0  0  0  0  0  0  0  0  0  0  0  0
   20.3240    5.0470   31.4380 O   0  0  0  0  0  0  0  0  0  0  0  0
   22.1700    4.3620   30.0280 C   0  0  0  0  0  0  0  0  0  0  0  0
   23.4540    3.9700   30.7070 C   0  0  0  0  0  0  0  0  0  0  0  0
   23.5020    2.8480   31.5420 C   0  0  0  0  0  0  0  0  0  0  0  0
   24.6870    2.4830   32.1900 C   0  0  0  0  0  0  0  0  0  0  0  0
   25.8370    3.2500   31.9760 C   0  0  0  0  0  0  0  0  0  0  0  0
   25.8180    4.3730   31.1190 C   0  0  0  0  0  0  0  0  0  0  0  0
   24.6290    4.7190   30.4920 C   0  0  0  0  0  0  0  0  0  0  0  0
   27.0790    3.0170   32.5200 O   0  0  0  0  0  0  0  0  0  0  0  0
   27.2220    1.9100   33.4470 C   0  0  0  0  0  0  0  0  0  0  0  0
   24.5180   10.0910   31.3260 H   0  0  0  0  0  0  0  0  0  0  0  0
   24.7250   11.8860   31.4860 H   0  0  0  0  0  0  0  0  0  0  0  0
   25.2840   11.0300   29.9920 H   0  0  0  0  0  0  0  0  0  0  0  0
   23.0330   12.3130   29.7110 H   0  0  0  0  0  0  0  0  0  0  0  0
   22.9200   10.5060   29.3490 H   0  0  0  0  0  0  0  0  0  0  0  0
   19.6400    6.9080   32.5080 H   0  0  0  0  0  0  0  0  0  0  0  0
   18.0300    8.2350   33.7450 H   0  0  0  0  0  0  0  0  0  0  0  0
   18.1200    9.9910   33.7890 H   0  0  0  0  0  0  0  0  0  0  0  0
   22.7570    6.8280   30.3370 H   0  0  0  0  0  0  0  0  0  0  0  0
   21.5480    3.4470   29.8440 H   0  0  0  0  0  0  0  0  0  0  0  0
   22.3950    4.8270   29.0320 H   0  0  0  0  0  0  0  0  0  0  0  0
   22.6130    2.2290   31.6950 H   0  0  0  0  0  0  0  0  0  0  0  0
   24.6900    1.6050   32.8390 H   0  0  0  0  0  0  0  0  0  0  0  0
   26.7280    4.9540   30.9490 H   0  0  0  0  0  0  0  0  0  0  0  0
   24.6230    5.5790   29.8140 H   0  0  0  0  0  0  0  0  0  0  0  0
   28.3040    1.9780   33.7150 H   0  0  0  0  0  0  0  0  0  0  0  0
   26.9970    0.9490   32.9370 H   0  0  0  0  0  0  0  0  0  0  0  0
   26.5770    2.0690   34.3380 H   0  0  0  0  0  0  0  0  0  0  0  0
  1  2  1  0  0  0  0
  1 25  1  0  0  0  0
  1 26  1  0  0  0  0
  1 27  1  0  0  0  0
  2  3  1  0  0  0  0
  2 28  1  0  0  0  0
  2 29  1  0  0  0  0
  3  4  1  0  0  0  0
  4 10  2  0  0  0  0
  4  5  1  0  0  0  0
  5  6  2  0  0  0  0
  6  7  1  0  0  0  0
  6 13  1  0  0  0  0
  7  8  2  0  0  0  0
  7 30  1  0  0  0  0
  8  9  1  0  0  0  0
  8 10  1  0  0  0  0
  9 31  1  0  0  0  0
  9 32  1  0  0  0  0
 10 11  1  0  0  0  0
 11 12  3  0  0  0  0
 13 14  1  0  0  0  0
 13 33  1  0  0  0  0
 14 15  2  0  0  0  0
 14 16  1  0  0  0  0
 16 17  1  0  0  0  0
 16 34  1  0  0  0  0
 16 35  1  0  0  0  0
 17 22  2  0  0  0  0
 17 18  1  0  0  0  0
 18 19  2  0  0  0  0
 18 36  1  0  0  0  0
 19 20  1  0  0  0  0
 19 37  1  0  0  0  0
 20 21  2  0  0  0  0
 20 23  1  0  0  0  0
 21 22  1  0  0  0  0
 21 38  1  0  0  0  0
 22 39  1  0  0  0  0
 23 24  1  0  0  0  0
 24 40  1  0  0  0  0
 24 41  1  0  0  0  0
 24 42  1  0  0  0  0
M  END
$$$$
