18652-1
 OpenBabel02232411163D
Structure written by MMmdl.
 55 56  0  0  0  0  0  0  0  0999 V2000
   23.3390   12.6250   29.8060 C   0  0  0  0  0  0  0  0  0  0  0  0
   23.2420   11.1470   30.1600 C   0  0  0  0  0  0  0  0  0  0  0  0
   24.5150   10.5670   30.7460 C   0  0  0  0  0  0  0  0  0  0  0  0
   22.1620   11.1810   31.2000 O   0  0  0  0  0  0  0  0  0  0  0  0
   21.5380   10.0470   31.5680 C   0  0  0  0  0  0  0  0  0  0  0  0
   21.9900    8.8490   31.1210 N   0  0  0  0  0  0  0  0  0  0  0  0
   21.2760    7.7210   31.4880 C   0  0  0  0  0  0  0  0  0  0  0  0
   20.1400    7.7740   32.2900 C   0  0  0  0  0  0  0  0  0  0  0  0
   19.6640    9.0330   32.7440 C   0  0  0  0  0  0  0  0  0  0  0  0
   18.5180    9.0930   33.4960 N   0  0  0  0  0  0  0  0  0  0  0  0
   20.3810   10.2190   32.3880 C   0  0  0  0  0  0  0  0  0  0  0  0
   19.9850   11.5230   32.7510 C   0  0  0  0  0  0  0  0  0  0  0  0
   19.7040   12.6180   33.0130 N   0  0  0  0  0  0  0  0  0  0  0  0
   21.8250    6.5350   30.9380 N   0  0  0  0  0  0  0  0  0  0  0  0
   21.1740    5.2850   30.8860 C   0  0  0  0  0  0  0  0  0  0  0  0
   20.1150    5.0700   31.4370 O   0  0  0  0  0  0  0  0  0  0  0  0
   21.8650    4.2610   30.0010 C   0  0  0  0  0  0  0  0  0  0  0  0
   23.2510    3.8610   30.4120 C   0  0  0  0  0  0  0  0  0  0  0  0
   24.3810    4.5730   29.9080 C   0  0  0  0  0  0  0  0  0  0  0  0
   24.0330    5.7100   29.1810 O   0  0  0  0  0  0  0  0  0  0  0  0
   25.0520    6.7420   29.0630 C   0  0  0  0  0  0  0  0  0  0  0  0
   25.6740    4.0960   30.0830 C   0  0  0  0  0  0  0  0  0  0  0  0
   25.9070    2.9330   30.8420 C   0  0  0  0  0  0  0  0  0  0  0  0
   27.5490    2.3270   30.9120 S   0  0  0  0  0  0  0  0  0  0  0  0
   27.5940    1.2020   31.8770 O   0  0  0  0  0  0  0  0  0  0  0  0
   28.4790    3.4070   31.3210 O   0  0  0  0  0  0  0  0  0  0  0  0
   27.8820    1.7820   29.2980 C   0  0  0  0  0  0  0  0  0  0  0  0
   24.8100    2.3040   31.4490 C   0  0  0  0  0  0  0  0  0  0  0  0
   23.4810    2.7460   31.1990 C   0  0  0  0  0  0  0  0  0  0  0  0
   25.1200    1.2690   32.2890 O   0  0  0  0  0  0  0  0  0  0  0  0
   24.0270    0.4630   32.8180 C   0  0  0  0  0  0  0  0  0  0  0  0
   22.3260   13.0480   29.6120 H   0  0  0  0  0  0  0  0  0  0  0  0
   23.8260   13.2110   30.6170 H   0  0  0  0  0  0  0  0  0  0  0  0
   23.9480   12.7310   28.8740 H   0  0  0  0  0  0  0  0  0  0  0  0
   22.8570   10.5400   29.3080 H   0  0  0  0  0  0  0  0  0  0  0  0
   24.3950    9.4780   30.9630 H   0  0  0  0  0  0  0  0  0  0  0  0
   25.3450   10.6740   30.0050 H   0  0  0  0  0  0  0  0  0  0  0  0
   24.8050   11.0880   31.6790 H   0  0  0  0  0  0  0  0  0  0  0  0
   19.5940    6.8670   32.5590 H   0  0  0  0  0  0  0  0  0  0  0  0
   17.9970    8.2300   33.7440 H   0  0  0  0  0  0  0  0  0  0  0  0
   18.1200    9.9850   33.7900 H   0  0  0  0  0  0  0  0  0  0  0  0
   22.7210    6.6450   30.4080 H   0  0  0  0  0  0  0  0  0  0  0  0
   21.2240    3.3400   29.9620 H   0  0  0  0  0  0  0  0  0  0  0  0
   21.9120    4.7020   28.9630 H   0  0  0  0  0  0  0  0  0  0  0  0
   25.7850    6.4350   28.2860 H   0  0  0  0  0  0  0  0  0  0  0  0
   24.4480    7.6190   28.7350 H   0  0  0  0  0  0  0  0  0  0  0  0
   25.5390    6.9270   30.0430 H   0  0  0  0  0  0  0  0  0  0  0  0
   26.5110    4.6220   29.6110 H   0  0  0  0  0  0  0  0  0  0  0  0
   27.8680    2.6220   28.5520 H   0  0  0  0  0  0  0  0  0  0  0  0
   28.8880    1.2970   29.2050 H   0  0  0  0  0  0  0  0  0  0  0  0
   27.1280    1.0340   28.9380 H   0  0  0  0  0  0  0  0  0  0  0  0
   22.6340    2.1910   31.6050 H   0  0  0  0  0  0  0  0  0  0  0  0
   23.3820    1.0730   33.4850 H   0  0  0  0  0  0  0  0  0  0  0  0
   23.4590   -0.0020   31.9830 H   0  0  0  0  0  0  0  0  0  0  0  0
   24.5810   -0.3130   33.3990 H   0  0  0  0  0  0  0  0  0  0  0  0
  1  2  1  0  0  0  0
  1 32  1  0  0  0  0
  1 33  1  0  0  0  0
  1 34  1  0  0  0  0
  2  3  1  0  0  0  0
  2  4  1  0  0  0  0
  2 35  1  0  0  0  0
  3 36  1  0  0  0  0
  3 37  1  0  0  0  0
  3 38  1  0  0  0  0
  4  5  1  0  0  0  0
  5 11  2  0  0  0  0
  5  6  1  0  0  0  0
  6  7  2  0  0  0  0
  7  8  1  0  0  0  0
  7 14  1  0  0  0  0
  8  9  2  0  0  0  0
  8 39  1  0  0  0  0
  9 10  1  0  0  0  0
  9 11  1  0  0  0  0
 10 40  1  0  0  0  0
 10 41  1  0  0  0  0
 11 12  1  0  0  0  0
 12 13  3  0  0  0  0
 14 15  1  0  0  0  0
 14 42  1  0  0  0  0
 15 16  2  0  0  0  0
 15 17  1  0  0  0  0
 17 18  1  0  0  0  0
 17 43  1  0  0  0  0
 17 44  1  0  0  0  0
 18 29  2  0  0  0  0
 18 19  1  0  0  0  0
 19 20  1  0  0  0  0
 19 22  2  0  0  0  0
 20 21  1  0  0  0  0
 21 45  1  0  0  0  0
 21 46  1  0  0  0  0
 21 47  1  0  0  0  0
 22 23  1  0  0  0  0
 22 48  1  0  0  0  0
 23 24  1  0  0  0  0
 23 28  2  0  0  0  0
 24 25  2  0  0  0  0
 24 26  2  0  0  0  0
 24 27  1  0  0  0  0
 27 49  1  0  0  0  0
 27 50  1  0  0  0  0
 27 51  1  0  0  0  0
 28 29  1  0  0  0  0
 28 30  1  0  0  0  0
 29 52  1  0  0  0  0
 30 31  1  0  0  0  0
 31 53  1  0  0  0  0
 31 54  1  0  0  0  0
 31 55  1  0  0  0  0
M  END
$$$$
