p38a_2n
 OpenBabel02232411163D
Structure written by MMmdl.
 53 56  0  0  0  0  0  0  0  0999 V2000
   36.4300   36.1580   15.6260 C   0  0  0  0  0  0  0  0  0  0  0  0
   34.5960   34.8370   21.0090 C   0  0  0  0  0  0  0  0  0  0  0  0
   35.8370   35.6060   16.7570 C   0  0  0  0  0  0  0  0  0  0  0  0
   33.7190   38.8170   23.6190 C   0  0  0  0  0  0  0  0  0  0  0  0
   34.7060   37.6880   21.3050 C   0  0  0  0  0  0  0  0  0  0  0  0
   35.3070   37.0800   20.1510 C   0  0  0  0  0  0  0  0  0  0  0  0
   37.7110   36.7000   15.7940 C   0  0  0  0  0  0  0  0  0  0  0  0
   38.3970   36.6930   17.0110 C   0  0  0  0  0  0  0  0  0  0  0  0
   37.7620   36.1710   18.1440 C   0  0  0  0  0  0  0  0  0  0  0  0
   34.1190   36.8860   22.3300 C   0  0  0  0  0  0  0  0  0  0  0  0
   34.7020   39.0960   21.5010 C   0  0  0  0  0  0  0  0  0  0  0  0
   35.2770   35.7330   20.0400 C   0  0  0  0  0  0  0  0  0  0  0  0
   36.4840   35.6230   18.0090 C   0  0  0  0  0  0  0  0  0  0  0  0
   34.6430   35.0340   16.6820 F   0  0  0  0  0  0  0  0  0  0  0  0
   35.8370   34.9370   19.0440 O   0  0  0  0  0  0  0  0  0  0  0  0
   34.2330   39.6710   22.6140 N   0  0  0  0  0  0  0  0  0  0  0  0
   34.4830   33.6370   20.8720 O   0  0  0  0  0  0  0  0  0  0  0  0
   34.0590   35.4870   22.1750 N   0  0  0  0  0  0  0  0  0  0  0  0
   33.6270   37.4470   23.4870 N   0  0  0  0  0  0  0  0  0  0  0  0
   33.2750   39.4710   24.7440 N   0  0  0  0  0  0  0  0  0  0  0  0
   35.9160   36.1870   14.6640 H   0  0  0  0  0  0  0  0  0  0  0  0
   35.7820   37.7310   19.4130 H   0  0  0  0  0  0  0  0  0  0  0  0
   39.4010   37.1130   17.0970 H   0  0  0  0  0  0  0  0  0  0  0  0
   38.2610   36.2200   19.1150 H   0  0  0  0  0  0  0  0  0  0  0  0
   35.1010   39.7660   20.7190 H   0  0  0  0  0  0  0  0  0  0  0  0
   33.4550   40.4960   24.8090 H   0  0  0  0  0  0  0  0  0  0  0  0
   38.2830   37.2790   14.7420 F   0  0  0  0  0  0  0  0  0  0  0  0
   33.3720   37.4640   28.0360 C   0  0  0  0  0  0  0  0  0  0  0  0
   33.8990   37.9880   26.6930 C   0  0  0  0  0  0  0  0  0  0  0  0
   32.8240   38.8760   26.0360 C   0  0  0  0  0  0  0  0  0  0  0  0
   31.5000   38.1020   25.8940 C   0  0  0  0  0  0  0  0  0  0  0  0
   31.0770   37.5730   27.2710 C   0  0  0  0  0  0  0  0  0  0  0  0
   32.1120   36.7710   27.8850 O   0  0  0  0  0  0  0  0  0  0  0  0
   33.2420   38.2960   28.7660 H   0  0  0  0  0  0  0  0  0  0  0  0
   34.0350   36.6650   28.4430 H   0  0  0  0  0  0  0  0  0  0  0  0
   34.1490   37.1260   26.0280 H   0  0  0  0  0  0  0  0  0  0  0  0
   34.8300   38.5800   26.8670 H   0  0  0  0  0  0  0  0  0  0  0  0
   32.6470   39.7770   26.7000 H   0  0  0  0  0  0  0  0  0  0  0  0
   30.7070   38.7770   25.4940 H   0  0  0  0  0  0  0  0  0  0  0  0
   31.6290   37.2470   25.1850 H   0  0  0  0  0  0  0  0  0  0  0  0
   30.8150   38.4080   27.9590 H   0  0  0  0  0  0  0  0  0  0  0  0
   30.2410   36.8410   27.1820 H   0  0  0  0  0  0  0  0  0  0  0  0
   33.4230   34.6170   23.2230 C   0  0  0  0  0  0  0  0  0  0  0  0
   34.0170   33.6630   23.2770 H   0  0  0  0  0  0  0  0  0  0  0  0
   33.4980   35.1400   24.2190 H   0  0  0  0  0  0  0  0  0  0  0  0
   31.9460   34.3090   22.9390 C   0  0  0  0  0  0  0  0  0  0  0  0
   31.5610   33.6970   23.7980 H   0  0  0  0  0  0  0  0  0  0  0  0
   31.3590   35.2580   22.9250 H   0  0  0  0  0  0  0  0  0  0  0  0
   31.7230   33.5310   21.6390 C   0  0  0  0  0  0  0  0  0  0  0  0
   31.6510   34.2050   20.7620 H   0  0  0  0  0  0  0  0  0  0  0  0
   32.4980   32.7450   21.4930 H   0  0  0  0  0  0  0  0  0  0  0  0
   30.4610   32.8310   21.7620 O   0  0  0  0  0  0  0  0  0  0  0  0
   30.0750   32.7650   20.8100 H   0  0  0  0  0  0  0  0  0  0  0  0
  1  3  2  0  0  0  0
  1  7  1  0  0  0  0
  1 21  1  0  0  0  0
  2 12  1  0  0  0  0
  2 17  2  0  0  0  0
  2 18  1  0  0  0  0
  3 13  1  0  0  0  0
  3 14  1  0  0  0  0
  4 16  2  0  0  0  0
  4 19  1  0  0  0  0
  4 20  1  0  0  0  0
  5  6  1  0  0  0  0
  5 10  1  0  0  0  0
  5 11  2  0  0  0  0
  6 12  2  0  0  0  0
  6 22  1  0  0  0  0
  7  8  2  0  0  0  0
  7 27  1  0  0  0  0
  8  9  1  0  0  0  0
  8 23  1  0  0  0  0
  9 13  2  0  0  0  0
  9 24  1  0  0  0  0
 10 18  1  0  0  0  0
 10 19  2  0  0  0  0
 11 16  1  0  0  0  0
 11 25  1  0  0  0  0
 12 15  1  0  0  0  0
 13 15  1  0  0  0  0
 18 43  1  0  0  0  0
 20 26  1  0  0  0  0
 20 30  1  0  0  0  0
 28 29  1  0  0  0  0
 28 33  1  0  0  0  0
 28 34  1  0  0  0  0
 28 35  1  0  0  0  0
 29 30  1  0  0  0  0
 29 36  1  0  0  0  0
 29 37  1  0  0  0  0
 30 31  1  0  0  0  0
 30 38  1  0  0  0  0
 31 32  1  0  0  0  0
 31 39  1  0  0  0  0
 31 40  1  0  0  0  0
 32 33  1  0  0  0  0
 32 41  1  0  0  0  0
 32 42  1  0  0  0  0
 43 44  1  0  0  0  0
 43 45  1  0  0  0  0
 43 46  1  0  0  0  0
 46 47  1  0  0  0  0
 46 48  1  0  0  0  0
 46 49  1  0  0  0  0
 49 50  1  0  0  0  0
 49 51  1  0  0  0  0
 49 52  1  0  0  0  0
 52 53  1  0  0  0  0
M  END
$$$$
