18637-1
 OpenBabel02232411163D
Structure written by MMmdl.
 53 54  0  0  0  0  0  0  0  0999 V2000
   23.7940   12.6810   30.3550 C   0  0  0  0  0  0  0  0  0  0  0  0
   23.3620   11.2310   30.4670 C   0  0  0  0  0  0  0  0  0  0  0  0
   22.1150   11.3150   31.2690 O   0  0  0  0  0  0  0  0  0  0  0  0
   21.4870   10.1680   31.6030 C   0  0  0  0  0  0  0  0  0  0  0  0
   21.9690    8.9860   31.1530 N   0  0  0  0  0  0  0  0  0  0  0  0
   21.2390    7.8430   31.4540 C   0  0  0  0  0  0  0  0  0  0  0  0
   20.0870    7.8710   32.2340 C   0  0  0  0  0  0  0  0  0  0  0  0
   19.6010    9.1140   32.7170 C   0  0  0  0  0  0  0  0  0  0  0  0
   18.4620    9.1470   33.4810 N   0  0  0  0  0  0  0  0  0  0  0  0
   20.3010   10.3170   32.3830 C   0  0  0  0  0  0  0  0  0  0  0  0
   19.8700   11.6130   32.7350 C   0  0  0  0  0  0  0  0  0  0  0  0
   19.5600   12.7050   32.9780 N   0  0  0  0  0  0  0  0  0  0  0  0
   21.7980    6.6900   30.8620 N   0  0  0  0  0  0  0  0  0  0  0  0
   21.1890    5.4150   30.7600 C   0  0  0  0  0  0  0  0  0  0  0  0
   20.1130    5.1660   31.2610 O   0  0  0  0  0  0  0  0  0  0  0  0
   21.9840    4.4340   29.9080 C   0  0  0  0  0  0  0  0  0  0  0  0
   23.2960    4.0640   30.5280 C   0  0  0  0  0  0  0  0  0  0  0  0
   24.4460    4.8610   30.3340 C   0  0  0  0  0  0  0  0  0  0  0  0
   24.2190    5.9510   29.5110 O   0  0  0  0  0  0  0  0  0  0  0  0
   25.2480    6.9720   29.4050 C   0  0  0  0  0  0  0  0  0  0  0  0
   25.6820    4.5490   30.9160 C   0  0  0  0  0  0  0  0  0  0  0  0
   25.7980    3.4020   31.7060 C   0  0  0  0  0  0  0  0  0  0  0  0
   24.6380    2.5910   31.9050 C   0  0  0  0  0  0  0  0  0  0  0  0
   23.4180    2.9120   31.3170 C   0  0  0  0  0  0  0  0  0  0  0  0
   24.8510    1.5270   32.7690 O   0  0  0  0  0  0  0  0  0  0  0  0
   23.9590    0.3890   32.6530 C   0  0  0  0  0  0  0  0  0  0  0  0
   27.0110    3.0250   32.3490 N   0  0  0  0  0  0  0  0  0  0  0  0
   28.3180    3.3430   31.8990 C   0  0  0  0  0  0  0  0  0  0  0  0
   28.4930    3.9990   30.8860 O   0  0  0  0  0  0  0  0  0  0  0  0
   29.4080    2.8030   32.7720 C   0  0  0  0  0  0  0  0  0  0  0  0
   24.7160   12.7320   29.7230 H   0  0  0  0  0  0  0  0  0  0  0  0
   23.0030   13.2970   29.8660 H   0  0  0  0  0  0  0  0  0  0  0  0
   24.0210   13.1170   31.3540 H   0  0  0  0  0  0  0  0  0  0  0  0
   23.1010   10.7880   29.4800 H   0  0  0  0  0  0  0  0  0  0  0  0
   24.0940   10.6080   31.0280 H   0  0  0  0  0  0  0  0  0  0  0  0
   19.5360    6.9560   32.4630 H   0  0  0  0  0  0  0  0  0  0  0  0
   18.0540   10.0290   33.7910 H   0  0  0  0  0  0  0  0  0  0  0  0
   17.9600    8.2720   33.7300 H   0  0  0  0  0  0  0  0  0  0  0  0
   22.7210    6.8330   30.3830 H   0  0  0  0  0  0  0  0  0  0  0  0
   21.3640    3.5140   29.7540 H   0  0  0  0  0  0  0  0  0  0  0  0
   22.1670    4.9110   28.9060 H   0  0  0  0  0  0  0  0  0  0  0  0
   25.5140    7.3600   30.4110 H   0  0  0  0  0  0  0  0  0  0  0  0
   26.1240    6.5620   28.8600 H   0  0  0  0  0  0  0  0  0  0  0  0
   24.7210    7.7470   28.8010 H   0  0  0  0  0  0  0  0  0  0  0  0
   26.5510    5.1950   30.7530 H   0  0  0  0  0  0  0  0  0  0  0  0
   22.5500    2.2660   31.4730 H   0  0  0  0  0  0  0  0  0  0  0  0
   24.4600   -0.3530   33.3200 H   0  0  0  0  0  0  0  0  0  0  0  0
   22.9520    0.6590   33.0390 H   0  0  0  0  0  0  0  0  0  0  0  0
   23.9280    0.0310   31.6030 H   0  0  0  0  0  0  0  0  0  0  0  0
   26.9220    2.3360   33.1170 H   0  0  0  0  0  0  0  0  0  0  0  0
   29.4570    1.6850   32.7170 H   0  0  0  0  0  0  0  0  0  0  0  0
   30.4070    3.2000   32.4540 H   0  0  0  0  0  0  0  0  0  0  0  0
   29.2630    3.0840   33.8470 H   0  0  0  0  0  0  0  0  0  0  0  0
  1  2  1  0  0  0  0
  1 31  1  0  0  0  0
  1 32  1  0  0  0  0
  1 33  1  0  0  0  0
  2  3  1  0  0  0  0
  2 34  1  0  0  0  0
  2 35  1  0  0  0  0
  3  4  1  0  0  0  0
  4 10  2  0  0  0  0
  4  5  1  0  0  0  0
  5  6  2  0  0  0  0
  6  7  1  0  0  0  0
  6 13  1  0  0  0  0
  7  8  2  0  0  0  0
  7 36  1  0  0  0  0
  8  9  1  0  0  0  0
  8 10  1  0  0  0  0
  9 37  1  0  0  0  0
  9 38  1  0  0  0  0
 10 11  1  0  0  0  0
 11 12  3  0  0  0  0
 13 14  1  0  0  0  0
 13 39  1  0  0  0  0
 14 15  2  0  0  0  0
 14 16  1  0  0  0  0
 16 17  1  0  0  0  0
 16 40  1  0  0  0  0
 16 41  1  0  0  0  0
 17 24  2  0  0  0  0
 17 18  1  0  0  0  0
 18 19  1  0  0  0  0
 18 21  2  0  0  0  0
 19 20  1  0  0  0  0
 20 42  1  0  0  0  0
 20 43  1  0  0  0  0
 20 44  1  0  0  0  0
 21 22  1  0  0  0  0
 21 45  1  0  0  0  0
 22 23  2  0  0  0  0
 22 27  1  0  0  0  0
 23 24  1  0  0  0  0
 23 25  1  0  0  0  0
 24 46  1  0  0  0  0
 25 26  1  0  0  0  0
 26 47  1  0  0  0  0
 26 48  1  0  0  0  0
 26 49  1  0  0  0  0
 27 28  1  0  0  0  0
 27 50  1  0  0  0  0
 28 29  2  0  0  0  0
 28 30  1  0  0  0  0
 30 51  1  0  0  0  0
 30 52  1  0  0  0  0
 30 53  1  0  0  0  0
M  END
$$$$
