49
 OpenBabel02232411163D
Structure written by MMmdl.
 41 43  0  0  0  0  0  0  0  0999 V2000
    3.9990  -50.1830    5.8150 O   0  0  0  0  0  0  0  0  0  0  0  0
    3.2580  -49.4340    6.4790 C   0  0  0  0  0  0  0  0  0  0  0  0
    3.6000  -48.4620    7.1640 O   0  5  0  0  0  0  0  0  0  0  0  0
    1.7600  -49.7990    6.4450 C   0  0  0  0  0  0  0  0  0  0  0  0
   -0.0230  -51.2240    6.6060 C   0  0  0  0  0  0  0  0  0  0  0  0
   -0.8840  -52.3160    6.8270 C   0  0  0  0  0  0  0  0  0  0  0  0
   -2.2460  -52.1080    6.6790 C   0  0  0  0  0  0  0  0  0  0  0  0
   -2.7610  -50.8450    6.2990 C   0  0  0  0  0  0  0  0  0  0  0  0
   -1.9000  -49.7830    6.0850 C   0  0  0  0  0  0  0  0  0  0  0  0
   -0.5130  -49.9140    6.2440 C   0  0  0  0  0  0  0  0  0  0  0  0
    0.6320  -49.0320    6.1710 C   0  0  0  0  0  0  0  0  0  0  0  0
    0.5490  -47.5620    5.9530 C   0  0  0  0  0  0  0  0  0  0  0  0
    0.0050  -46.8960    7.2350 C   0  0  0  0  0  0  0  0  0  0  0  0
   -0.5980  -45.5150    7.0250 C   0  0  0  0  0  0  0  0  0  0  0  0
   -1.8070  -45.5840    6.1960 O   0  0  0  0  0  0  0  0  0  0  0  0
   -3.0260  -45.4540    6.7990 C   0  0  0  0  0  0  0  0  0  0  0  0
   -3.3440  -45.9830    8.0580 C   0  0  0  0  0  0  0  0  0  0  0  0
   -4.6410  -45.8250    8.5650 C   0  0  0  0  0  0  0  0  0  0  0  0
   -5.0240  -46.4180    9.8780 C   0  0  0  0  0  0  0  0  0  0  0  0
   -5.5690  -45.1040    7.7960 C   0  0  0  0  0  0  0  0  0  0  0  0
   -7.1750  -44.8870    8.3990 Cl  0  0  0  0  0  0  0  0  0  0  0  0
   -5.2560  -44.5680    6.5430 C   0  0  0  0  0  0  0  0  0  0  0  0
   -3.9790  -44.7530    6.0250 C   0  0  0  0  0  0  0  0  0  0  0  0
   -0.4970  -53.2940    7.1150 H   0  0  0  0  0  0  0  0  0  0  0  0
   -2.9480  -52.9230    6.8630 H   0  0  0  0  0  0  0  0  0  0  0  0
   -3.8400  -50.7270    6.1840 H   0  0  0  0  0  0  0  0  0  0  0  0
   -2.5630  -48.2570    5.6120 Cl  0  0  0  0  0  0  0  0  0  0  0  0
   -0.1410  -47.3330    5.1020 H   0  0  0  0  0  0  0  0  0  0  0  0
    1.5500  -47.1320    5.7090 H   0  0  0  0  0  0  0  0  0  0  0  0
    0.8390  -46.7910    7.9680 H   0  0  0  0  0  0  0  0  0  0  0  0
   -0.7830  -47.5540    7.6790 H   0  0  0  0  0  0  0  0  0  0  0  0
    0.0330  -44.8620    6.3820 H   0  0  0  0  0  0  0  0  0  0  0  0
   -0.8510  -45.0210    7.9890 H   0  0  0  0  0  0  0  0  0  0  0  0
   -2.6110  -46.5460    8.6330 H   0  0  0  0  0  0  0  0  0  0  0  0
   -5.5990  -45.6890   10.4970 H   0  0  0  0  0  0  0  0  0  0  0  0
   -5.6770  -47.3130    9.7110 H   0  0  0  0  0  0  0  0  0  0  0  0
   -4.1280  -46.7480   10.4550 H   0  0  0  0  0  0  0  0  0  0  0  0
   -3.7170  -44.3670    5.0410 H   0  0  0  0  0  0  0  0  0  0  0  0
   -6.0100  -44.0200    5.9730 H   0  0  0  0  0  0  0  0  0  0  0  0
    1.3690  -51.1280    6.7080 N   0  0  0  0  0  0  0  0  0  0  0  0
    1.9650  -51.9160    6.9380 H   0  0  0  0  0  0  0  0  0  0  0  0
  1  2  2  0  0  0  0
  2  3  1  0  0  0  0
  2  4  1  0  0  0  0
  4 11  2  0  0  0  0
  4 40  1  0  0  0  0
  5  6  2  0  0  0  0
  5 10  1  0  0  0  0
  5 40  1  0  0  0  0
  6  7  1  0  0  0  0
  6 24  1  0  0  0  0
  7  8  2  0  0  0  0
  7 25  1  0  0  0  0
  8  9  1  0  0  0  0
  8 26  1  0  0  0  0
  9 10  2  0  0  0  0
  9 27  1  0  0  0  0
 10 11  1  0  0  0  0
 11 12  1  0  0  0  0
 12 28  1  0  0  0  0
 12 29  1  0  0  0  0
 12 13  1  0  0  0  0
 13 14  1  0  0  0  0
 13 30  1  0  0  0  0
 13 31  1  0  0  0  0
 14 15  1  0  0  0  0
 14 32  1  0  0  0  0
 14 33  1  0  0  0  0
 15 16  1  0  0  0  0
 16 17  2  0  0  0  0
 16 23  1  0  0  0  0
 17 18  1  0  0  0  0
 17 34  1  0  0  0  0
 18 19  1  0  0  0  0
 18 20  2  0  0  0  0
 19 35  1  0  0  0  0
 19 36  1  0  0  0  0
 19 37  1  0  0  0  0
 20 21  1  0  0  0  0
 20 22  1  0  0  0  0
 22 23  2  0  0  0  0
 22 39  1  0  0  0  0
 23 38  1  0  0  0  0
 40 41  1  0  0  0  0
M  CHG  1   3  -1
M  END
$$$$
