p38a_2q
 OpenBabel02232411163D
Structure written by MMmdl.
 59 63  0  0  0  0  0  0  0  0999 V2000
   38.2910   36.5500   17.1450 C   0  0  0  0  0  0  0  0  0  0  0  0
   34.5830   35.0930   21.2350 C   0  0  0  0  0  0  0  0  0  0  0  0
   37.5110   36.0950   18.2050 C   0  0  0  0  0  0  0  0  0  0  0  0
   34.0820   39.1640   23.8090 C   0  0  0  0  0  0  0  0  0  0  0  0
   34.6850   37.9510   21.4120 C   0  0  0  0  0  0  0  0  0  0  0  0
   35.0660   37.3120   20.1830 C   0  0  0  0  0  0  0  0  0  0  0  0
   37.6400   36.7020   15.9130 C   0  0  0  0  0  0  0  0  0  0  0  0
   36.2910   36.3980   15.7110 C   0  0  0  0  0  0  0  0  0  0  0  0
   35.5320   35.9330   16.7900 C   0  0  0  0  0  0  0  0  0  0  0  0
   34.3490   37.1780   22.5640 C   0  0  0  0  0  0  0  0  0  0  0  0
   34.6430   39.3670   21.5430 C   0  0  0  0  0  0  0  0  0  0  0  0
   35.0570   35.9610   20.1290 C   0  0  0  0  0  0  0  0  0  0  0  0
   36.1480   35.7750   18.0340 C   0  0  0  0  0  0  0  0  0  0  0  0
   38.0470   35.9650   19.4110 F   0  0  0  0  0  0  0  0  0  0  0  0
   35.4290   35.1460   19.0600 O   0  0  0  0  0  0  0  0  0  0  0  0
   34.3550   39.9870   22.6940 N   0  0  0  0  0  0  0  0  0  0  0  0
   34.4330   33.8920   21.1510 O   0  0  0  0  0  0  0  0  0  0  0  0
   34.2920   35.7700   22.4770 N   0  0  0  0  0  0  0  0  0  0  0  0
   34.0780   37.7810   23.7640 N   0  0  0  0  0  0  0  0  0  0  0  0
   33.7470   39.7970   24.9790 N   0  0  0  0  0  0  0  0  0  0  0  0
   39.3440   36.8120   17.2780 H   0  0  0  0  0  0  0  0  0  0  0  0
   35.3620   37.9410   19.3420 H   0  0  0  0  0  0  0  0  0  0  0  0
   35.8180   36.5360   14.7360 H   0  0  0  0  0  0  0  0  0  0  0  0
   34.4670   35.7140   16.6560 H   0  0  0  0  0  0  0  0  0  0  0  0
   34.8510   40.0030   20.6660 H   0  0  0  0  0  0  0  0  0  0  0  0
   33.8300   40.8320   25.0390 H   0  0  0  0  0  0  0  0  0  0  0  0
   38.3330   37.1990   14.8920 F   0  0  0  0  0  0  0  0  0  0  0  0
   32.5690   39.2010   28.5640 C   0  0  0  0  0  0  0  0  0  0  0  0
   32.5970   39.8100   27.1560 C   0  0  0  0  0  0  0  0  0  0  0  0
   33.6450   39.0810   26.2890 C   0  0  0  0  0  0  0  0  0  0  0  0
   35.0190   39.0750   26.9920 C   0  0  0  0  0  0  0  0  0  0  0  0
   34.8760   38.4980   28.4070 C   0  0  0  0  0  0  0  0  0  0  0  0
   33.8800   39.2110   29.1750 O   0  0  0  0  0  0  0  0  0  0  0  0
   32.1860   38.1550   28.5350 H   0  0  0  0  0  0  0  0  0  0  0  0
   31.9800   39.8400   29.2620 H   0  0  0  0  0  0  0  0  0  0  0  0
   32.8500   40.8940   27.2260 H   0  0  0  0  0  0  0  0  0  0  0  0
   31.5910   39.7130   26.6820 H   0  0  0  0  0  0  0  0  0  0  0  0
   33.3060   38.0260   26.0980 H   0  0  0  0  0  0  0  0  0  0  0  0
   35.7350   38.4490   26.4080 H   0  0  0  0  0  0  0  0  0  0  0  0
   35.4180   40.1160   27.0430 H   0  0  0  0  0  0  0  0  0  0  0  0
   34.6010   37.4190   28.3640 H   0  0  0  0  0  0  0  0  0  0  0  0
   35.8010   38.6680   29.0040 H   0  0  0  0  0  0  0  0  0  0  0  0
   31.8790   34.1190   24.9790 C   0  0  0  0  0  0  0  0  0  0  0  0
   32.4130   35.2300   24.0740 C   0  0  0  0  0  0  0  0  0  0  0  0
   33.8560   34.9060   23.6350 C   0  0  0  0  0  0  0  0  0  0  0  0
   34.8320   34.9930   24.8290 C   0  0  0  0  0  0  0  0  0  0  0  0
   34.5500   33.8650   25.8260 C   0  0  0  0  0  0  0  0  0  0  0  0
   31.7800   33.1720   24.3850 H   0  0  0  0  0  0  0  0  0  0  0  0
   30.8330   34.3970   25.2840 H   0  0  0  0  0  0  0  0  0  0  0  0
   32.3720   36.2140   24.6090 H   0  0  0  0  0  0  0  0  0  0  0  0
   31.7510   35.3120   23.1760 H   0  0  0  0  0  0  0  0  0  0  0  0
   33.8740   33.8420   23.2450 H   0  0  0  0  0  0  0  0  0  0  0  0
   35.8810   34.8980   24.4540 H   0  0  0  0  0  0  0  0  0  0  0  0
   34.7410   35.9890   25.3360 H   0  0  0  0  0  0  0  0  0  0  0  0
   34.7990   32.8790   25.3490 H   0  0  0  0  0  0  0  0  0  0  0  0
   35.2480   33.9840   26.7000 H   0  0  0  0  0  0  0  0  0  0  0  0
   32.8790   33.8510   26.3990 S   0  0  0  0  0  0  0  0  0  0  0  0
   32.6570   34.8980   27.4120 O   0  0  0  0  0  0  0  0  0  0  0  0
   32.5600   32.5110   26.9610 O   0  0  0  0  0  0  0  0  0  0  0  0
  1  3  2  0  0  0  0
  1  7  1  0  0  0  0
  1 21  1  0  0  0  0
  2 12  1  0  0  0  0
  2 17  2  0  0  0  0
  2 18  1  0  0  0  0
  3 13  1  0  0  0  0
  3 14  1  0  0  0  0
  4 16  2  0  0  0  0
  4 19  1  0  0  0  0
  4 20  1  0  0  0  0
  5  6  1  0  0  0  0
  5 10  1  0  0  0  0
  5 11  2  0  0  0  0
  6 12  2  0  0  0  0
  6 22  1  0  0  0  0
  7  8  2  0  0  0  0
  7 27  1  0  0  0  0
  8  9  1  0  0  0  0
  8 23  1  0  0  0  0
  9 13  2  0  0  0  0
  9 24  1  0  0  0  0
 10 18  1  0  0  0  0
 10 19  2  0  0  0  0
 11 16  1  0  0  0  0
 11 25  1  0  0  0  0
 12 15  1  0  0  0  0
 13 15  1  0  0  0  0
 18 45  1  0  0  0  0
 20 26  1  0  0  0  0
 20 30  1  0  0  0  0
 28 29  1  0  0  0  0
 28 33  1  0  0  0  0
 28 34  1  0  0  0  0
 28 35  1  0  0  0  0
 29 30  1  0  0  0  0
 29 36  1  0  0  0  0
 29 37  1  0  0  0  0
 30 31  1  0  0  0  0
 30 38  1  0  0  0  0
 31 32  1  0  0  0  0
 31 39  1  0  0  0  0
 31 40  1  0  0  0  0
 32 33  1  0  0  0  0
 32 41  1  0  0  0  0
 32 42  1  0  0  0  0
 43 44  1  0  0  0  0
 43 48  1  0  0  0  0
 43 49  1  0  0  0  0
 43 57  1  0  0  0  0
 44 45  1  0  0  0  0
 44 50  1  0  0  0  0
 44 51  1  0  0  0  0
 45 46  1  0  0  0  0
 45 52  1  0  0  0  0
 46 47  1  0  0  0  0
 46 53  1  0  0  0  0
 46 54  1  0  0  0  0
 47 55  1  0  0  0  0
 47 56  1  0  0  0  0
 47 57  1  0  0  0  0
 57 58  2  0  0  0  0
 57 59  2  0  0  0  0
M  END
$$$$
