CAT-13i
 OpenBabel02232411143D
Structure written by MMmdl.
 46 49  0  0  1  0  0  0  0  0999 V2000
   11.7800   -1.8090    1.1500 C   0  0  0  0  0  0  0  0  0  0  0  0
   13.0780   -2.2120    0.5800 N   0  0  0  0  0  0  0  0  0  0  0  0
   14.2490   -2.3070    1.3410 C   0  0  0  0  0  0  0  0  0  0  0  0
   14.3460   -2.2790    2.6950 N   0  0  0  0  0  0  0  0  0  0  0  0
   15.3410   -2.5260    0.5040 N   0  3  0  0  0  0  0  0  0  0  0  0
   14.8730   -2.8760   -0.8870 C   0  0  2  0  0  0  0  0  0  0  0  0
   15.1580   -4.3470   -1.2040 C   0  0  0  0  0  0  0  0  0  0  0  0
   14.6300   -5.4640   -0.3200 C   0  0  0  0  0  0  0  0  0  0  0  0
   13.7400   -5.4110    0.9150 C   0  0  0  0  0  0  0  0  0  0  0  0
   13.1870   -5.9530   -0.3830 C   0  0  0  0  0  0  0  0  0  0  0  0
   15.4480   -1.8520   -1.8620 C   0  0  0  0  0  0  0  0  0  0  0  0
   16.1640   -2.2280   -3.0030 C   0  0  0  0  0  0  0  0  0  0  0  0
   16.6160   -1.2450   -3.8920 C   0  0  0  0  0  0  0  0  0  0  0  0
   16.3670    0.1060   -3.6530 C   0  0  0  0  0  0  0  0  0  0  0  0
   15.6730    0.4990   -2.4950 C   0  0  0  0  0  0  0  0  0  0  0  0
   15.4240    1.9310   -2.2110 C   0  0  0  0  0  0  0  0  0  0  0  0
   15.6330    2.4340   -0.9170 C   0  0  0  0  0  0  0  0  0  0  0  0
   15.3410    3.7680   -0.6150 C   0  0  0  0  0  0  0  0  0  0  0  0
   14.8560    4.6240   -1.6070 C   0  0  0  0  0  0  0  0  0  0  0  0
   14.6990    4.1240   -2.9030 C   0  0  0  0  0  0  0  0  0  0  0  0
   14.1540    5.1870   -4.1390 Cl  0  0  0  0  0  0  0  0  0  0  0  0
   14.9650    2.7910   -3.2230 C   0  0  0  0  0  0  0  0  0  0  0  0
   15.2150   -0.4880   -1.6100 C   0  0  0  0  0  0  0  0  0  0  0  0
   13.3360   -2.6120   -0.8120 C   0  0  0  0  0  0  0  0  0  0  0  0
   12.4760   -2.6510   -1.6340 O   0  0  0  0  0  0  0  0  0  0  0  0
   11.6420   -2.2610    2.1690 H   0  0  0  0  0  0  0  0  0  0  0  0
   11.7570   -0.6890    1.2270 H   0  0  0  0  0  0  0  0  0  0  0  0
   10.9490   -2.1640    0.4840 H   0  0  0  0  0  0  0  0  0  0  0  0
   13.6090   -1.8700    3.3140 H   0  0  0  0  0  0  0  0  0  0  0  0
   16.2230   -2.9410    0.9030 H   0  0  0  0  0  0  0  0  0  0  0  0
   16.2800   -4.4540   -1.2270 H   0  0  0  0  0  0  0  0  0  0  0  0
   14.7590   -4.5540   -2.2360 H   0  0  0  0  0  0  0  0  0  0  0  0
   15.4010   -6.2560   -0.2750 H   0  0  0  0  0  0  0  0  0  0  0  0
   13.9730   -6.1220    1.7230 H   0  0  0  0  0  0  0  0  0  0  0  0
   13.3370   -4.4920    1.3280 H   0  0  0  0  0  0  0  0  0  0  0  0
   12.4520   -5.3600   -0.9350 H   0  0  0  0  0  0  0  0  0  0  0  0
   13.0070   -7.0350   -0.4630 H   0  0  0  0  0  0  0  0  0  0  0  0
   16.3780   -3.2750   -3.2170 H   0  0  0  0  0  0  0  0  0  0  0  0
   17.1790   -1.5350   -4.7830 H   0  0  0  0  0  0  0  0  0  0  0  0
   16.7200    0.8550   -4.3700 H   0  0  0  0  0  0  0  0  0  0  0  0
   16.0140    1.7750   -0.1360 H   0  0  0  0  0  0  0  0  0  0  0  0
   15.4860    4.1300    0.4070 H   0  0  0  0  0  0  0  0  0  0  0  0
   14.5900    5.6550   -1.3630 H   0  0  0  0  0  0  0  0  0  0  0  0
   14.8110    2.4180   -4.2410 H   0  0  0  0  0  0  0  0  0  0  0  0
   14.6780   -0.1920   -0.7080 H   0  0  0  0  0  0  0  0  0  0  0  0
   15.2990   -2.3090    3.1460 H   0  0  0  0  0  0  0  0  0  0  0  0
  1  2  1  0  0  0  0
  1 26  1  0  0  0  0
  1 27  1  0  0  0  0
  1 28  1  0  0  0  0
  2  3  1  0  0  0  0
  2 24  1  0  0  0  0
  3  4  1  0  0  0  0
  3  5  2  0  0  0  0
  4 29  1  0  0  0  0
  4 46  1  0  0  0  0
  5  6  1  0  0  0  0
  5 30  1  0  0  0  0
  6  7  1  6  0  0  0
  6 11  1  0  0  0  0
  6 24  1  0  0  0  0
  7  8  1  0  0  0  0
  7 31  1  0  0  0  0
  7 32  1  0  0  0  0
  8  9  1  0  0  0  0
  8 10  1  0  0  0  0
  8 33  1  0  0  0  0
  9 10  1  0  0  0  0
  9 34  1  0  0  0  0
  9 35  1  0  0  0  0
 10 36  1  0  0  0  0
 10 37  1  0  0  0  0
 11 12  2  0  0  0  0
 11 23  1  0  0  0  0
 12 13  1  0  0  0  0
 12 38  1  0  0  0  0
 13 14  2  0  0  0  0
 13 39  1  0  0  0  0
 14 15  1  0  0  0  0
 14 40  1  0  0  0  0
 15 16  1  0  0  0  0
 15 23  2  0  0  0  0
 16 17  2  0  0  0  0
 16 22  1  0  0  0  0
 17 18  1  0  0  0  0
 17 41  1  0  0  0  0
 18 19  2  0  0  0  0
 18 42  1  0  0  0  0
 19 20  1  0  0  0  0
 19 43  1  0  0  0  0
 20 21  1  0  0  0  0
 20 22  2  0  0  0  0
 22 44  1  0  0  0  0
 23 45  1  0  0  0  0
 24 25  2  0  0  0  0
M  CHG  1   5   1
M  END
$$$$
