18639-1
 OpenBabel02232411163D
Structure written by MMmdl.
 48 49  0  0  0  0  0  0  0  0999 V2000
   23.1990   10.7860   29.0660 C   0  0  0  0  0  0  0  0  0  0  0  0
   23.4780   11.0390   30.5320 C   0  0  0  0  0  0  0  0  0  0  0  0
   22.2150   11.1510   31.2920 O   0  0  0  0  0  0  0  0  0  0  0  0
   21.5550   10.0240   31.6390 C   0  0  0  0  0  0  0  0  0  0  0  0
   22.0220    8.8250   31.2200 N   0  0  0  0  0  0  0  0  0  0  0  0
   21.2750    7.7010   31.5330 C   0  0  0  0  0  0  0  0  0  0  0  0
   20.1090    7.7570   32.2880 C   0  0  0  0  0  0  0  0  0  0  0  0
   19.6410    9.0170   32.7490 C   0  0  0  0  0  0  0  0  0  0  0  0
   18.4880    9.0760   33.4890 N   0  0  0  0  0  0  0  0  0  0  0  0
   20.3720   10.2030   32.4160 C   0  0  0  0  0  0  0  0  0  0  0  0
   19.9780   11.5090   32.7770 C   0  0  0  0  0  0  0  0  0  0  0  0
   19.7050   12.6070   33.0340 N   0  0  0  0  0  0  0  0  0  0  0  0
   21.8490    6.5330   30.9800 N   0  0  0  0  0  0  0  0  0  0  0  0
   21.2400    5.2650   30.8760 C   0  0  0  0  0  0  0  0  0  0  0  0
   20.1430    5.0220   31.3310 O   0  0  0  0  0  0  0  0  0  0  0  0
   22.0610    4.2650   30.0700 C   0  0  0  0  0  0  0  0  0  0  0  0
   23.4250    3.9870   30.6300 C   0  0  0  0  0  0  0  0  0  0  0  0
   24.5270    4.8440   30.3150 C   0  0  0  0  0  0  0  0  0  0  0  0
   24.1770    5.8910   29.4730 O   0  0  0  0  0  0  0  0  0  0  0  0
   25.1360    6.9730   29.3090 C   0  0  0  0  0  0  0  0  0  0  0  0
   25.8030    4.5980   30.7970 C   0  0  0  0  0  0  0  0  0  0  0  0
   26.0240    3.4830   31.6330 C   0  0  0  0  0  0  0  0  0  0  0  0
   27.3720    3.2240   32.1460 N   0  3  0  0  0  0  0  0  0  0  0  0
   27.4960    2.4420   33.0750 O   0  5  0  0  0  0  0  0  0  0  0  0
   28.3190    3.7960   31.6180 O   0  0  0  0  0  0  0  0  0  0  0  0
   24.9480    2.6220   31.9490 C   0  0  0  0  0  0  0  0  0  0  0  0
   23.6560    2.8810   31.4320 C   0  0  0  0  0  0  0  0  0  0  0  0
   25.2870    1.5840   32.7640 O   0  0  0  0  0  0  0  0  0  0  0  0
   24.2840    0.5510   32.9990 C   0  0  0  0  0  0  0  0  0  0  0  0
   24.1570   10.8480   28.4920 H   0  0  0  0  0  0  0  0  0  0  0  0
   22.4960   11.5430   28.6500 H   0  0  0  0  0  0  0  0  0  0  0  0
   22.7650    9.7710   28.9070 H   0  0  0  0  0  0  0  0  0  0  0  0
   23.8870   12.0620   30.7140 H   0  0  0  0  0  0  0  0  0  0  0  0
   24.1140   10.2440   30.9830 H   0  0  0  0  0  0  0  0  0  0  0  0
   19.5390    6.8540   32.5130 H   0  0  0  0  0  0  0  0  0  0  0  0
   17.9820    8.2100   33.7580 H   0  0  0  0  0  0  0  0  0  0  0  0
   18.0970    9.9660   33.7960 H   0  0  0  0  0  0  0  0  0  0  0  0
   22.7710    6.6770   30.4980 H   0  0  0  0  0  0  0  0  0  0  0  0
   21.4830    3.3050   30.0020 H   0  0  0  0  0  0  0  0  0  0  0  0
   22.1760    4.6850   29.0300 H   0  0  0  0  0  0  0  0  0  0  0  0
   25.4520    7.3690   30.2990 H   0  0  0  0  0  0  0  0  0  0  0  0
   25.9920    6.6120   28.7010 H   0  0  0  0  0  0  0  0  0  0  0  0
   24.5260    7.7220   28.7550 H   0  0  0  0  0  0  0  0  0  0  0  0
   26.6460    5.2460   30.5320 H   0  0  0  0  0  0  0  0  0  0  0  0
   22.8360    2.1970   31.6640 H   0  0  0  0  0  0  0  0  0  0  0  0
   24.8630   -0.1830   33.6090 H   0  0  0  0  0  0  0  0  0  0  0  0
   23.4340    0.9680   33.5790 H   0  0  0  0  0  0  0  0  0  0  0  0
   23.9640    0.1030   32.0330 H   0  0  0  0  0  0  0  0  0  0  0  0
  1  2  1  0  0  0  0
  1 30  1  0  0  0  0
  1 31  1  0  0  0  0
  1 32  1  0  0  0  0
  2  3  1  0  0  0  0
  2 33  1  0  0  0  0
  2 34  1  0  0  0  0
  3  4  1  0  0  0  0
  4 10  2  0  0  0  0
  4  5  1  0  0  0  0
  5  6  2  0  0  0  0
  6  7  1  0  0  0  0
  6 13  1  0  0  0  0
  7  8  2  0  0  0  0
  7 35  1  0  0  0  0
  8  9  1  0  0  0  0
  8 10  1  0  0  0  0
  9 36  1  0  0  0  0
  9 37  1  0  0  0  0
 10 11  1  0  0  0  0
 11 12  3  0  0  0  0
 13 14  1  0  0  0  0
 13 38  1  0  0  0  0
 14 15  2  0  0  0  0
 14 16  1  0  0  0  0
 16 17  1  0  0  0  0
 16 39  1  0  0  0  0
 16 40  1  0  0  0  0
 17 27  2  0  0  0  0
 17 18  1  0  0  0  0
 18 19  1  0  0  0  0
 18 21  2  0  0  0  0
 19 20  1  0  0  0  0
 20 41  1  0  0  0  0
 20 42  1  0  0  0  0
 20 43  1  0  0  0  0
 21 22  1  0  0  0  0
 21 44  1  0  0  0  0
 22 23  1  0  0  0  0
 22 26  2  0  0  0  0
 23 24  1  0  0  0  0
 23 25  2  0  0  0  0
 26 27  1  0  0  0  0
 26 28  1  0  0  0  0
 27 45  1  0  0  0  0
 28 29  1  0  0  0  0
 29 46  1  0  0  0  0
 29 47  1  0  0  0  0
 29 48  1  0  0  0  0
M  CHG  2  23   1  24  -1
M  END
$$$$
