p38a_3flw
 OpenBabel02232411163D
Structure written by MMmdl.
 49 51  0  0  0  0  0  0  0  0999 V2000
   36.4090   36.1370   15.6780 C   0  0  0  0  0  0  0  0  0  0  0  0
   37.6950   36.6710   15.8280 C   0  0  0  0  0  0  0  0  0  0  0  0
   32.4930   39.6860   27.1250 C   0  0  0  0  0  0  0  0  0  0  0  0
   33.8250   40.0900   27.7680 C   0  0  0  0  0  0  0  0  0  0  0  0
   31.2850   38.1000   25.5680 C   0  0  0  0  0  0  0  0  0  0  0  0
   33.3980   34.8040   23.3020 C   0  0  0  0  0  0  0  0  0  0  0  0
   34.6180   35.0530   16.7660 F   0  0  0  0  0  0  0  0  0  0  0  0
   35.8180   35.6130   16.8230 C   0  0  0  0  0  0  0  0  0  0  0  0
   38.2650   37.2320   14.7640 F   0  0  0  0  0  0  0  0  0  0  0  0
   38.3900   36.6780   17.0400 C   0  0  0  0  0  0  0  0  0  0  0  0
   37.7590   36.1820   18.1860 C   0  0  0  0  0  0  0  0  0  0  0  0
   36.4730   35.6480   18.0710 C   0  0  0  0  0  0  0  0  0  0  0  0
   35.8260   34.9890   19.1230 O   0  0  0  0  0  0  0  0  0  0  0  0
   35.2680   35.8080   20.1020 C   0  0  0  0  0  0  0  0  0  0  0  0
   35.3280   37.1560   20.2000 C   0  0  0  0  0  0  0  0  0  0  0  0
   34.7300   37.7930   21.3430 C   0  0  0  0  0  0  0  0  0  0  0  0
   34.7060   39.2030   21.5250 C   0  0  0  0  0  0  0  0  0  0  0  0
   34.2030   39.7940   22.6190 N   0  0  0  0  0  0  0  0  0  0  0  0
   34.5560   34.9300   21.0700 C   0  0  0  0  0  0  0  0  0  0  0  0
   34.3890   33.7360   20.9370 O   0  0  0  0  0  0  0  0  0  0  0  0
   34.0420   35.6090   22.2270 N   0  0  0  0  0  0  0  0  0  0  0  0
   34.1400   37.0040   22.3740 C   0  0  0  0  0  0  0  0  0  0  0  0
   33.6440   37.5700   23.5190 N   0  0  0  0  0  0  0  0  0  0  0  0
   33.6820   38.9490   23.6230 C   0  0  0  0  0  0  0  0  0  0  0  0
   33.1760   39.5400   24.7530 N   0  0  0  0  0  0  0  0  0  0  0  0
   32.6470   38.7490   25.9150 C   0  0  0  0  0  0  0  0  0  0  0  0
   31.0470   36.8240   26.3880 C   0  0  0  0  0  0  0  0  0  0  0  0
   30.7180   37.1480   27.7560 O   0  0  0  0  0  0  0  0  0  0  0  0
   33.5910   40.6870   29.0570 O   0  0  0  0  0  0  0  0  0  0  0  0
   35.8900   36.1510   14.7170 H   0  0  0  0  0  0  0  0  0  0  0  0
   31.8650   39.1470   27.8840 H   0  0  0  0  0  0  0  0  0  0  0  0
   31.9500   40.6070   26.8150 H   0  0  0  0  0  0  0  0  0  0  0  0
   34.4580   39.2050   28.0030 H   0  0  0  0  0  0  0  0  0  0  0  0
   34.3650   40.8260   27.1290 H   0  0  0  0  0  0  0  0  0  0  0  0
   30.4620   38.8290   25.7500 H   0  0  0  0  0  0  0  0  0  0  0  0
   31.2640   37.8180   24.4870 H   0  0  0  0  0  0  0  0  0  0  0  0
   32.5300   35.3660   23.7460 H   0  0  0  0  0  0  0  0  0  0  0  0
   33.0190   33.8350   22.8840 H   0  0  0  0  0  0  0  0  0  0  0  0
   34.1390   34.5970   24.1190 H   0  0  0  0  0  0  0  0  0  0  0  0
   39.3990   37.0900   17.1110 H   0  0  0  0  0  0  0  0  0  0  0  0
   38.2660   36.2410   19.1530 H   0  0  0  0  0  0  0  0  0  0  0  0
   35.8220   37.7880   19.4600 H   0  0  0  0  0  0  0  0  0  0  0  0
   35.1090   39.8640   20.7400 H   0  0  0  0  0  0  0  0  0  0  0  0
   33.2100   40.5710   24.8590 H   0  0  0  0  0  0  0  0  0  0  0  0
   33.3990   37.9430   26.1450 H   0  0  0  0  0  0  0  0  0  0  0  0
   30.2200   36.2270   25.9440 H   0  0  0  0  0  0  0  0  0  0  0  0
   31.9790   36.2170   26.4760 H   0  0  0  0  0  0  0  0  0  0  0  0
   29.7130   37.0440   27.8660 H   0  0  0  0  0  0  0  0  0  0  0  0
   33.0280   41.5150   28.9170 H   0  0  0  0  0  0  0  0  0  0  0  0
  1  2  2  0  0  0  0
  1  8  1  0  0  0  0
  1 30  1  0  0  0  0
  2  9  1  0  0  0  0
  2 10  1  0  0  0  0
  3  4  1  0  0  0  0
  3 26  1  0  0  0  0
  3 31  1  0  0  0  0
  3 32  1  0  0  0  0
  4 29  1  0  0  0  0
  4 33  1  0  0  0  0
  4 34  1  0  0  0  0
  5 26  1  0  0  0  0
  5 27  1  0  0  0  0
  5 35  1  0  0  0  0
  5 36  1  0  0  0  0
  6 21  1  0  0  0  0
  6 37  1  0  0  0  0
  6 38  1  0  0  0  0
  6 39  1  0  0  0  0
  7  8  1  0  0  0  0
  8 12  2  0  0  0  0
 10 11  2  0  0  0  0
 10 40  1  0  0  0  0
 11 12  1  0  0  0  0
 11 41  1  0  0  0  0
 12 13  1  0  0  0  0
 13 14  1  0  0  0  0
 14 15  2  0  0  0  0
 14 19  1  0  0  0  0
 15 16  1  0  0  0  0
 15 42  1  0  0  0  0
 16 17  2  0  0  0  0
 16 22  1  0  0  0  0
 17 18  1  0  0  0  0
 17 43  1  0  0  0  0
 18 24  2  0  0  0  0
 19 20  2  0  0  0  0
 19 21  1  0  0  0  0
 21 22  1  0  0  0  0
 22 23  2  0  0  0  0
 23 24  1  0  0  0  0
 24 25  1  0  0  0  0
 25 26  1  0  0  0  0
 25 44  1  0  0  0  0
 26 45  1  0  0  0  0
 27 28  1  0  0  0  0
 27 46  1  0  0  0  0
 27 47  1  0  0  0  0
 28 48  1  0  0  0  0
 29 49  1  0  0  0  0
M  END
$$$$
