p38a_2gg
 OpenBabel02232411163D
Structure written by MMmdl.
 48 51  0  0  0  0  0  0  0  0999 V2000
   36.3520   35.9770   15.8790 C   0  0  0  0  0  0  0  0  0  0  0  0
   34.5280   35.0530   21.4610 C   0  0  0  0  0  0  0  0  0  0  0  0
   35.6460   35.5310   16.9920 C   0  0  0  0  0  0  0  0  0  0  0  0
   34.2390   39.1760   23.9720 C   0  0  0  0  0  0  0  0  0  0  0  0
   34.7460   37.9180   21.5700 C   0  0  0  0  0  0  0  0  0  0  0  0
   35.1290   37.2300   20.3670 C   0  0  0  0  0  0  0  0  0  0  0  0
   37.6430   36.4680   16.1140 C   0  0  0  0  0  0  0  0  0  0  0  0
   38.2430   36.4860   17.3760 C   0  0  0  0  0  0  0  0  0  0  0  0
   37.5000   36.0640   18.4840 C   0  0  0  0  0  0  0  0  0  0  0  0
   34.3960   37.1790   22.7400 C   0  0  0  0  0  0  0  0  0  0  0  0
   34.7150   39.3330   21.6770 C   0  0  0  0  0  0  0  0  0  0  0  0
   35.0620   35.8790   20.3430 C   0  0  0  0  0  0  0  0  0  0  0  0
   36.2000   35.5900   18.2870 C   0  0  0  0  0  0  0  0  0  0  0  0
   33.9570   35.0310   23.9240 C   0  0  0  0  0  0  0  0  0  0  0  0
   34.4290   35.0210   16.8580 F   0  0  0  0  0  0  0  0  0  0  0  0
   35.4140   35.0250   19.3000 O   0  0  0  0  0  0  0  0  0  0  0  0
   34.4600   39.9720   22.8290 N   0  0  0  0  0  0  0  0  0  0  0  0
   34.2840   33.8690   21.4070 O   0  0  0  0  0  0  0  0  0  0  0  0
   34.2910   35.7820   22.6820 N   0  0  0  0  0  0  0  0  0  0  0  0
   34.1400   37.8040   23.9390 N   0  0  0  0  0  0  0  0  0  0  0  0
   34.1930   39.8630   25.1710 N   0  0  0  0  0  0  0  0  0  0  0  0
   35.9140   35.9720   14.8780 H   0  0  0  0  0  0  0  0  0  0  0  0
   35.4810   37.8290   19.5230 H   0  0  0  0  0  0  0  0  0  0  0  0
   39.2650   36.8530   17.5030 H   0  0  0  0  0  0  0  0  0  0  0  0
   37.9320   36.1320   19.4850 H   0  0  0  0  0  0  0  0  0  0  0  0
   34.8980   39.9580   20.7870 H   0  0  0  0  0  0  0  0  0  0  0  0
   34.7670   35.1880   24.6880 H   0  0  0  0  0  0  0  0  0  0  0  0
   32.9890   35.4100   24.3500 H   0  0  0  0  0  0  0  0  0  0  0  0
   33.8630   33.9360   23.7040 H   0  0  0  0  0  0  0  0  0  0  0  0
   34.0600   40.8950   25.1320 H   0  0  0  0  0  0  0  0  0  0  0  0
   38.3150   36.9760   15.0830 F   0  0  0  0  0  0  0  0  0  0  0  0
   34.4510   37.7110   28.3490 C   0  0  0  0  0  0  0  0  0  0  0  0
   34.6290   38.0520   26.8700 C   0  0  0  0  0  0  0  0  0  0  0  0
   33.8160   39.3100   26.5020 C   0  0  0  0  0  0  0  0  0  0  0  0
   32.2910   39.0620   26.6140 C   0  0  0  0  0  0  0  0  0  0  0  0
   31.8960   38.8230   28.0730 C   0  0  0  0  0  0  0  0  0  0  0  0
   34.8860   38.5450   28.9660 H   0  0  0  0  0  0  0  0  0  0  0  0
   35.0570   36.7970   28.5830 H   0  0  0  0  0  0  0  0  0  0  0  0
   34.3230   37.1860   26.2310 H   0  0  0  0  0  0  0  0  0  0  0  0
   35.7110   38.2620   26.6700 H   0  0  0  0  0  0  0  0  0  0  0  0
   34.0950   40.1380   27.2240 H   0  0  0  0  0  0  0  0  0  0  0  0
   31.7540   39.9700   26.2360 H   0  0  0  0  0  0  0  0  0  0  0  0
   31.9950   38.1980   25.9710 H   0  0  0  0  0  0  0  0  0  0  0  0
   32.1190   39.7570   28.6590 H   0  0  0  0  0  0  0  0  0  0  0  0
   30.7890   38.6640   28.1310 H   0  0  0  0  0  0  0  0  0  0  0  0
   32.7650   37.4620   28.7760 S   0  0  0  0  0  0  0  0  0  0  0  0
   32.2620   36.1780   28.2380 O   0  0  0  0  0  0  0  0  0  0  0  0
   32.6200   37.4780   30.2580 O   0  0  0  0  0  0  0  0  0  0  0  0
  1  3  2  0  0  0  0
  1  7  1  0  0  0  0
  1 22  1  0  0  0  0
  2 12  1  0  0  0  0
  2 18  2  0  0  0  0
  2 19  1  0  0  0  0
  3 13  1  0  0  0  0
  3 15  1  0  0  0  0
  4 17  2  0  0  0  0
  4 20  1  0  0  0  0
  4 21  1  0  0  0  0
  5  6  1  0  0  0  0
  5 10  1  0  0  0  0
  5 11  2  0  0  0  0
  6 12  2  0  0  0  0
  6 23  1  0  0  0  0
  7  8  2  0  0  0  0
  7 31  1  0  0  0  0
  8  9  1  0  0  0  0
  8 24  1  0  0  0  0
  9 13  2  0  0  0  0
  9 25  1  0  0  0  0
 10 19  1  0  0  0  0
 10 20  2  0  0  0  0
 11 17  1  0  0  0  0
 11 26  1  0  0  0  0
 12 16  1  0  0  0  0
 13 16  1  0  0  0  0
 14 19  1  0  0  0  0
 14 27  1  0  0  0  0
 14 28  1  0  0  0  0
 14 29  1  0  0  0  0
 21 30  1  0  0  0  0
 21 34  1  0  0  0  0
 32 33  1  0  0  0  0
 32 37  1  0  0  0  0
 32 38  1  0  0  0  0
 32 46  1  0  0  0  0
 33 34  1  0  0  0  0
 33 39  1  0  0  0  0
 33 40  1  0  0  0  0
 34 35  1  0  0  0  0
 34 41  1  0  0  0  0
 35 36  1  0  0  0  0
 35 42  1  0  0  0  0
 35 43  1  0  0  0  0
 36 44  1  0  0  0  0
 36 45  1  0  0  0  0
 36 46  1  0  0  0  0
 46 47  2  0  0  0  0
 46 48  2  0  0  0  0
M  END
$$$$
