32
 OpenBabel02232411153D
Structure written by MMmdl.
 54 57  0  0  0  0  0  0  0  0999 V2000
    1.7620   28.9160    6.7850 C   0  0  0  0  0  0  0  0  0  0  0  0
   -1.6560   31.5530    8.0140 C   0  0  0  0  0  0  0  0  0  0  0  0
   -0.1970   26.0500    8.8900 C   0  0  0  0  0  0  0  0  0  0  0  0
   -0.9470   25.3350   10.0200 C   0  0  0  0  0  0  0  0  0  0  0  0
   -0.7450   23.8160    9.8100 C   0  0  0  0  0  0  0  0  0  0  0  0
   -1.3580   23.0060   10.9600 C   0  0  0  0  0  0  0  0  0  0  0  0
   -0.8190   23.4640   12.3240 C   0  0  0  0  0  0  0  0  0  0  0  0
   -1.0530   24.9680   12.5350 C   0  0  0  0  0  0  0  0  0  0  0  0
   -0.4280   25.7910   11.3980 C   0  0  0  0  0  0  0  0  0  0  0  0
    4.2130   25.4270    7.9730 C   0  0  0  0  0  0  0  0  0  0  0  0
    5.0430   24.8580    6.9900 C   0  0  0  0  0  0  0  0  0  0  0  0
    5.1990   25.5740    5.7830 C   0  0  0  0  0  0  0  0  0  0  0  0
    4.5370   26.7890    5.5510 C   0  0  0  0  0  0  0  0  0  0  0  0
    1.0360   27.9620    7.4870 N   0  0  0  0  0  0  0  0  0  0  0  0
   -0.1400   28.3050    8.0750 C   0  0  0  0  0  0  0  0  0  0  0  0
   -0.8110   27.4030    8.8060 O   0  0  0  0  0  0  0  0  0  0  0  0
   -0.6420   29.6250    7.9280 C   0  0  0  0  0  0  0  0  0  0  0  0
   -1.7730   30.2850    8.4190 N   0  0  0  0  0  0  0  0  0  0  0  0
   -0.4510   31.7750    7.2590 N   0  0  0  0  0  0  0  0  0  0  0  0
    0.1950   30.5470    7.1780 C   0  0  0  0  0  0  0  0  0  0  0  0
    1.3860   30.2260    6.5690 N   0  0  0  0  0  0  0  0  0  0  0  0
    2.9760   28.4960    6.2300 N   0  0  0  0  0  0  0  0  0  0  0  0
    3.6710   27.2920    6.5350 C   0  0  0  0  0  0  0  0  0  0  0  0
    3.5460   26.6230    7.7730 C   0  0  0  0  0  0  0  0  0  0  0  0
   -2.3460   32.3650    8.2250 H   0  0  0  0  0  0  0  0  0  0  0  0
    0.8860   26.1550    9.1240 H   0  0  0  0  0  0  0  0  0  0  0  0
   -0.3650   25.5830    7.8990 H   0  0  0  0  0  0  0  0  0  0  0  0
   -2.0370   25.5690    9.9630 H   0  0  0  0  0  0  0  0  0  0  0  0
   -1.2210   23.5080    8.8530 H   0  0  0  0  0  0  0  0  0  0  0  0
    0.3500   23.5930    9.7580 H   0  0  0  0  0  0  0  0  0  0  0  0
   -2.4620   23.1360   10.9500 H   0  0  0  0  0  0  0  0  0  0  0  0
   -1.1200   21.9260   10.8190 H   0  0  0  0  0  0  0  0  0  0  0  0
   -1.3260   22.8920   13.1330 H   0  0  0  0  0  0  0  0  0  0  0  0
    0.2760   23.2560   12.3690 H   0  0  0  0  0  0  0  0  0  0  0  0
   -2.1470   25.1700   12.5950 H   0  0  0  0  0  0  0  0  0  0  0  0
   -0.5860   25.2780   13.4990 H   0  0  0  0  0  0  0  0  0  0  0  0
    0.6810   25.6670   11.4440 H   0  0  0  0  0  0  0  0  0  0  0  0
   -0.6680   26.8680   11.5460 H   0  0  0  0  0  0  0  0  0  0  0  0
    4.0600   24.9190    8.9330 H   0  0  0  0  0  0  0  0  0  0  0  0
    4.6710   27.3480    4.6280 H   0  0  0  0  0  0  0  0  0  0  0  0
   -0.1740   32.6530    6.7950 H   0  0  0  0  0  0  0  0  0  0  0  0
    3.4740   29.1410    5.5700 H   0  0  0  0  0  0  0  0  0  0  0  0
    2.9180   27.0250    8.5670 H   0  0  0  0  0  0  0  0  0  0  0  0
    5.8310   23.3650    7.3100 S   0  0  0  0  0  0  0  0  0  0  0  0
    5.8570   22.5350    6.0980 O   0  0  0  0  0  0  0  0  0  0  0  0
    7.1510   23.6440    7.8860 O   0  0  0  0  0  0  0  0  0  0  0  0
    4.8820   22.5180    8.4270 N   0  0  0  0  0  0  0  0  0  0  0  0
    3.9280   22.2040    8.1980 H   0  0  0  0  0  0  0  0  0  0  0  0
    4.9460   22.8120    9.4440 H   0  0  0  0  0  0  0  0  0  0  0  0
    6.0200   24.9640    4.8800 O   0  0  0  0  0  0  0  0  0  0  0  0
    6.2470   25.6130    3.5970 C   0  0  0  0  0  0  0  0  0  0  0  0
    6.9560   24.9020    3.1070 H   0  0  0  0  0  0  0  0  0  0  0  0
    5.2920   25.6800    3.0340 H   0  0  0  0  0  0  0  0  0  0  0  0
    6.7230   26.6040    3.7540 H   0  0  0  0  0  0  0  0  0  0  0  0
  1 14  2  0  0  0  0
  1 21  1  0  0  0  0
  1 22  1  0  0  0  0
  2 18  2  0  0  0  0
  2 19  1  0  0  0  0
  2 25  1  0  0  0  0
  3  4  1  0  0  0  0
  3 16  1  0  0  0  0
  3 26  1  0  0  0  0
  3 27  1  0  0  0  0
  4  5  1  0  0  0  0
  4  9  1  0  0  0  0
  4 28  1  0  0  0  0
  5  6  1  0  0  0  0
  5 29  1  0  0  0  0
  5 30  1  0  0  0  0
  6  7  1  0  0  0  0
  6 31  1  0  0  0  0
  6 32  1  0  0  0  0
  7  8  1  0  0  0  0
  7 33  1  0  0  0  0
  7 34  1  0  0  0  0
  8  9  1  0  0  0  0
  8 35  1  0  0  0  0
  8 36  1  0  0  0  0
  9 37  1  0  0  0  0
  9 38  1  0  0  0  0
 10 11  2  0  0  0  0
 10 24  1  0  0  0  0
 10 39  1  0  0  0  0
 11 12  1  0  0  0  0
 11 44  1  0  0  0  0
 12 13  2  0  0  0  0
 12 50  1  0  0  0  0
 13 23  1  0  0  0  0
 13 40  1  0  0  0  0
 14 15  1  0  0  0  0
 15 16  1  0  0  0  0
 15 17  2  0  0  0  0
 17 18  1  0  0  0  0
 17 20  1  0  0  0  0
 19 20  1  0  0  0  0
 19 41  1  0  0  0  0
 20 21  2  0  0  0  0
 22 23  1  0  0  0  0
 22 42  1  0  0  0  0
 23 24  2  0  0  0  0
 24 43  1  0  0  0  0
 44 45  2  0  0  0  0
 44 46  2  0  0  0  0
 44 47  1  0  0  0  0
 47 49  1  0  0  0  0
 47 48  1  0  0  0  0
 50 51  1  0  0  0  0
 51 52  1  0  0  0  0
 51 53  1  0  0  0  0
 51 54  1  0  0  0  0
M  END
$$$$
