p38a_2aa
 OpenBabel02232411163D
Structure written by MMmdl.
 43 45  0  0  0  0  0  0  0  0999 V2000
   36.3500   36.0050   15.8590 C   0  0  0  0  0  0  0  0  0  0  0  0
   34.5240   35.0470   21.3920 C   0  0  0  0  0  0  0  0  0  0  0  0
   35.6960   35.5440   16.9970 C   0  0  0  0  0  0  0  0  0  0  0  0
   33.8580   39.1880   23.7920 C   0  0  0  0  0  0  0  0  0  0  0  0
   33.1160   39.1840   26.1930 C   0  0  0  0  0  0  0  0  0  0  0  0
   34.7130   37.9190   21.5050 C   0  0  0  0  0  0  0  0  0  0  0  0
   35.2030   37.2260   20.3430 C   0  0  0  0  0  0  0  0  0  0  0  0
   37.6430   36.5120   16.0430 C   0  0  0  0  0  0  0  0  0  0  0  0
   38.2910   36.5370   17.2820 C   0  0  0  0  0  0  0  0  0  0  0  0
   37.5990   36.1010   18.4170 C   0  0  0  0  0  0  0  0  0  0  0  0
   34.2330   37.1820   22.6280 C   0  0  0  0  0  0  0  0  0  0  0  0
   34.6970   39.3350   21.6100 C   0  0  0  0  0  0  0  0  0  0  0  0
   35.1390   35.8750   20.3160 C   0  0  0  0  0  0  0  0  0  0  0  0
   36.3010   35.6060   18.2690 C   0  0  0  0  0  0  0  0  0  0  0  0
   33.6590   35.0400   23.7650 C   0  0  0  0  0  0  0  0  0  0  0  0
   34.4820   35.0180   16.9100 F   0  0  0  0  0  0  0  0  0  0  0  0
   35.5790   35.0130   19.3140 O   0  0  0  0  0  0  0  0  0  0  0  0
   34.2940   39.9820   22.7150 N   0  0  0  0  0  0  0  0  0  0  0  0
   34.3200   33.8550   21.3280 O   0  0  0  0  0  0  0  0  0  0  0  0
   34.1590   35.7820   22.5740 N   0  0  0  0  0  0  0  0  0  0  0  0
   33.8220   37.8110   23.7790 N   0  0  0  0  0  0  0  0  0  0  0  0
   33.3550   39.8610   24.8910 N   0  0  0  0  0  0  0  0  0  0  0  0
   35.8740   35.9950   14.8750 H   0  0  0  0  0  0  0  0  0  0  0  0
   33.5280   40.0990   27.3810 C   0  0  0  0  0  0  0  0  0  0  0  0
   35.6210   37.8200   19.5270 H   0  0  0  0  0  0  0  0  0  0  0  0
   39.3120   36.9180   17.3710 H   0  0  0  0  0  0  0  0  0  0  0  0
   38.0690   36.1730   19.4000 H   0  0  0  0  0  0  0  0  0  0  0  0
   35.0210   39.9510   20.7550 H   0  0  0  0  0  0  0  0  0  0  0  0
   34.2940   35.2850   24.6610 H   0  0  0  0  0  0  0  0  0  0  0  0
   32.6000   35.3400   23.9920 H   0  0  0  0  0  0  0  0  0  0  0  0
   33.6980   33.9350   23.5830 H   0  0  0  0  0  0  0  0  0  0  0  0
   33.4870   40.8870   24.9440 H   0  0  0  0  0  0  0  0  0  0  0  0
   38.2680   37.0280   14.9880 F   0  0  0  0  0  0  0  0  0  0  0  0
   31.5960   38.8600   26.2670 C   0  0  0  0  0  0  0  0  0  0  0  0
   31.1710   38.7640   27.6320 O   0  0  0  0  0  0  0  0  0  0  0  0
   31.5290   37.9350   28.0390 H   0  0  0  0  0  0  0  0  0  0  0  0
   30.9820   39.7030   25.8750 H   0  0  0  0  0  0  0  0  0  0  0  0
   31.3740   37.9070   25.7330 H   0  0  0  0  0  0  0  0  0  0  0  0
   34.7430   40.8140   27.1140 O   0  0  0  0  0  0  0  0  0  0  0  0
   32.7210   40.8300   27.6140 H   0  0  0  0  0  0  0  0  0  0  0  0
   33.7790   39.4720   28.2690 H   0  0  0  0  0  0  0  0  0  0  0  0
   34.4960   41.6070   26.5360 H   0  0  0  0  0  0  0  0  0  0  0  0
   33.7020   38.2240   26.2560 H   0  0  0  0  0  0  0  0  0  0  0  0
  1  3  2  0  0  0  0
  1  8  1  0  0  0  0
  1 23  1  0  0  0  0
  2 13  1  0  0  0  0
  2 19  2  0  0  0  0
  2 20  1  0  0  0  0
  3 14  1  0  0  0  0
  3 16  1  0  0  0  0
  4 18  2  0  0  0  0
  4 21  1  0  0  0  0
  4 22  1  0  0  0  0
  5 22  1  0  0  0  0
  5 24  1  0  0  0  0
  5 34  1  0  0  0  0
  5 43  1  0  0  0  0
  6  7  1  0  0  0  0
  6 11  1  0  0  0  0
  6 12  2  0  0  0  0
  7 13  2  0  0  0  0
  7 25  1  0  0  0  0
  8  9  2  0  0  0  0
  8 33  1  0  0  0  0
  9 10  1  0  0  0  0
  9 26  1  0  0  0  0
 10 14  2  0  0  0  0
 10 27  1  0  0  0  0
 11 20  1  0  0  0  0
 11 21  2  0  0  0  0
 12 18  1  0  0  0  0
 12 28  1  0  0  0  0
 13 17  1  0  0  0  0
 14 17  1  0  0  0  0
 15 20  1  0  0  0  0
 15 29  1  0  0  0  0
 15 30  1  0  0  0  0
 15 31  1  0  0  0  0
 22 32  1  0  0  0  0
 24 39  1  0  0  0  0
 24 40  1  0  0  0  0
 24 41  1  0  0  0  0
 34 35  1  0  0  0  0
 34 37  1  0  0  0  0
 34 38  1  0  0  0  0
 35 36  1  0  0  0  0
 39 42  1  0  0  0  0
M  END
$$$$
