p38a_3fmk
 OpenBabel02232411163D
Structure written by MMmdl.
 46 49  0  0  1  0  0  0  0  0999 V2000
   37.4870   36.0730   18.1640 C   0  0  0  0  0  0  0  0  0  0  0  0
   38.2860   36.5460   17.1280 C   0  0  0  0  0  0  0  0  0  0  0  0
   34.0510   35.0170   23.6380 C   0  0  0  0  0  0  0  0  0  0  0  0
   36.3160   36.4110   15.6530 C   0  0  0  0  0  0  0  0  0  0  0  0
   34.6080   39.3670   21.4070 C   0  0  0  0  0  0  0  0  0  0  0  0
   33.7120   39.1200   26.1720 C   0  0  1  0  0  0  0  0  0  0  0  0
   32.5500   39.7870   26.9780 C   0  0  0  0  0  0  0  0  0  0  0  0
   34.0810   39.1690   23.6820 C   0  0  0  0  0  0  0  0  0  0  0  0
   34.5930   35.0730   21.1710 C   0  0  0  0  0  0  0  0  0  0  0  0
   35.0210   35.9340   20.0360 C   0  0  0  0  0  0  0  0  0  0  0  0
   35.0170   37.2860   20.0620 C   0  0  0  0  0  0  0  0  0  0  0  0
   36.1290   35.7440   17.9600 C   0  0  0  0  0  0  0  0  0  0  0  0
   35.5370   35.9210   16.7070 C   0  0  0  0  0  0  0  0  0  0  0  0
   34.6600   37.9540   21.2840 C   0  0  0  0  0  0  0  0  0  0  0  0
   34.3700   37.1880   22.4540 C   0  0  0  0  0  0  0  0  0  0  0  0
   33.7020   39.8130   24.8490 N   0  0  0  0  0  0  0  0  0  0  0  0
   37.6580   36.7160   15.8860 C   0  0  0  0  0  0  0  0  0  0  0  0
   38.3690   37.2350   14.8880 F   0  0  0  0  0  0  0  0  0  0  0  0
   37.9970   35.9310   19.3810 F   0  0  0  0  0  0  0  0  0  0  0  0
   35.3890   35.1140   18.9700 O   0  0  0  0  0  0  0  0  0  0  0  0
   34.4450   33.8720   21.1300 O   0  0  0  0  0  0  0  0  0  0  0  0
   34.3450   35.7870   22.3960 N   0  0  0  0  0  0  0  0  0  0  0  0
   34.1040   37.7920   23.6590 N   0  0  0  0  0  0  0  0  0  0  0  0
   34.3350   39.9860   22.5670 N   0  0  0  0  0  0  0  0  0  0  0  0
   35.0670   39.2910   26.8600 C   0  0  0  0  0  0  0  0  0  0  0  0
   32.2030   38.9960   28.1760 N   0  0  0  0  0  0  0  0  0  0  0  0
   32.6150   39.3250   29.4330 N   0  0  0  0  0  0  0  0  0  0  0  0
   32.1240   38.3260   30.2200 C   0  0  0  0  0  0  0  0  0  0  0  0
   31.4190   37.4010   29.4040 N   0  0  0  0  0  0  0  0  0  0  0  0
   31.4830   37.8270   28.1820 N   0  0  0  0  0  0  0  0  0  0  0  0
   39.3360   36.8110   17.2840 H   0  0  0  0  0  0  0  0  0  0  0  0
   34.7940   35.2840   24.4370 H   0  0  0  0  0  0  0  0  0  0  0  0
   33.0210   35.2710   24.0100 H   0  0  0  0  0  0  0  0  0  0  0  0
   34.1090   33.9160   23.4340 H   0  0  0  0  0  0  0  0  0  0  0  0
   35.8610   36.5680   14.6730 H   0  0  0  0  0  0  0  0  0  0  0  0
   34.7970   40.0070   20.5290 H   0  0  0  0  0  0  0  0  0  0  0  0
   33.4850   38.0260   26.0270 H   0  0  0  0  0  0  0  0  0  0  0  0
   32.8590   40.8240   27.2950 H   0  0  0  0  0  0  0  0  0  0  0  0
   31.6390   39.8600   26.3150 H   0  0  0  0  0  0  0  0  0  0  0  0
   35.2880   37.8990   19.2010 H   0  0  0  0  0  0  0  0  0  0  0  0
   34.4770   35.6990   16.5450 H   0  0  0  0  0  0  0  0  0  0  0  0
   33.8500   40.8420   24.9140 H   0  0  0  0  0  0  0  0  0  0  0  0
   35.8630   38.7840   26.2670 H   0  0  0  0  0  0  0  0  0  0  0  0
   35.3300   40.3710   26.9630 H   0  0  0  0  0  0  0  0  0  0  0  0
   35.0520   38.8410   27.8780 H   0  0  0  0  0  0  0  0  0  0  0  0
   32.2440   38.2350   31.2990 H   0  0  0  0  0  0  0  0  0  0  0  0
  1  2  2  0  0  0  0
  1 12  1  0  0  0  0
  1 19  1  0  0  0  0
  2 17  1  0  0  0  0
  2 31  1  0  0  0  0
  3 22  1  0  0  0  0
  3 32  1  0  0  0  0
  3 33  1  0  0  0  0
  3 34  1  0  0  0  0
  4 13  1  0  0  0  0
  4 17  2  0  0  0  0
  4 35  1  0  0  0  0
  5 14  2  0  0  0  0
  5 24  1  0  0  0  0
  5 36  1  0  0  0  0
  6  7  1  0  0  0  0
  6 16  1  0  0  0  0
  6 25  1  0  0  0  0
  6 37  1  6  0  0  0
  7 26  1  0  0  0  0
  7 38  1  0  0  0  0
  7 39  1  0  0  0  0
  8 16  1  0  0  0  0
  8 23  1  0  0  0  0
  8 24  2  0  0  0  0
  9 10  1  0  0  0  0
  9 21  2  0  0  0  0
  9 22  1  0  0  0  0
 10 11  2  0  0  0  0
 10 20  1  0  0  0  0
 11 14  1  0  0  0  0
 11 40  1  0  0  0  0
 12 13  2  0  0  0  0
 12 20  1  0  0  0  0
 13 41  1  0  0  0  0
 14 15  1  0  0  0  0
 15 22  1  0  0  0  0
 15 23  2  0  0  0  0
 16 42  1  0  0  0  0
 17 18  1  0  0  0  0
 25 43  1  0  0  0  0
 25 44  1  0  0  0  0
 25 45  1  0  0  0  0
 26 27  1  0  0  0  0
 26 30  1  0  0  0  0
 27 28  2  0  0  0  0
 28 29  1  0  0  0  0
 28 46  1  0  0  0  0
 29 30  2  0  0  0  0
M  END
$$$$
