1oiu
 OpenBabel02232411153D
Structure written by MMmdl.
 50 53  0  0  0  0  0  0  0  0999 V2000
    1.9370   28.7360    6.7760 C   0  0  0  0  0  0  0  0  0  0  0  0
   -1.4910   31.4120    7.9190 C   0  0  0  0  0  0  0  0  0  0  0  0
   -0.0920   25.9270    8.9260 C   0  0  0  0  0  0  0  0  0  0  0  0
   -0.8820   25.2600   10.0580 C   0  0  0  0  0  0  0  0  0  0  0  0
   -0.7280   23.7310    9.8860 C   0  0  0  0  0  0  0  0  0  0  0  0
   -1.3640   22.9640   11.0540 C   0  0  0  0  0  0  0  0  0  0  0  0
   -0.8110   23.4390   12.4060 C   0  0  0  0  0  0  0  0  0  0  0  0
   -1.0150   24.9520   12.5840 C   0  0  0  0  0  0  0  0  0  0  0  0
   -0.3710   25.7370   11.4320 C   0  0  0  0  0  0  0  0  0  0  0  0
    5.4030   25.4180    5.6870 C   0  0  0  0  0  0  0  0  0  0  0  0
    5.2960   24.7410    6.9080 C   0  0  0  0  0  0  0  0  0  0  0  0
    4.4790   25.2520    7.9200 C   0  0  0  0  0  0  0  0  0  0  0  0
    3.7570   26.4310    7.7290 C   0  0  0  0  0  0  0  0  0  0  0  0
    1.2130   27.8090    7.5210 N   0  0  0  0  0  0  0  0  0  0  0  0
    0.0200   28.1650    8.0620 C   0  0  0  0  0  0  0  0  0  0  0  0
   -0.6770   27.2870    8.7980 O   0  0  0  0  0  0  0  0  0  0  0  0
   -0.4860   29.4780    7.8690 C   0  0  0  0  0  0  0  0  0  0  0  0
   -1.6210   30.1500    8.3360 N   0  0  0  0  0  0  0  0  0  0  0  0
   -0.2750   31.6190    7.1760 N   0  0  0  0  0  0  0  0  0  0  0  0
    0.3640   30.3840    7.1130 C   0  0  0  0  0  0  0  0  0  0  0  0
    1.5550   30.0440    6.5220 N   0  0  0  0  0  0  0  0  0  0  0  0
    3.1280   28.3050    6.1950 N   0  0  0  0  0  0  0  0  0  0  0  0
    3.8450   27.1000    6.4960 C   0  0  0  0  0  0  0  0  0  0  0  0
    4.7000   26.6040    5.4810 C   0  0  0  0  0  0  0  0  0  0  0  0
   -2.1780   32.2320    8.1060 H   0  0  0  0  0  0  0  0  0  0  0  0
    0.9890   26.0150    9.1780 H   0  0  0  0  0  0  0  0  0  0  0  0
   -0.2540   25.4380    7.9430 H   0  0  0  0  0  0  0  0  0  0  0  0
   -1.9630   25.5280    9.9770 H   0  0  0  0  0  0  0  0  0  0  0  0
   -1.2150   23.4170    8.9370 H   0  0  0  0  0  0  0  0  0  0  0  0
    0.3590   23.4730    9.8370 H   0  0  0  0  0  0  0  0  0  0  0  0
   -2.4640   23.1230   11.0400 H   0  0  0  0  0  0  0  0  0  0  0  0
   -1.1560   21.8750   10.9380 H   0  0  0  0  0  0  0  0  0  0  0  0
   -1.3260   22.8950   13.2300 H   0  0  0  0  0  0  0  0  0  0  0  0
    0.2790   23.2120   12.4500 H   0  0  0  0  0  0  0  0  0  0  0  0
   -2.1050   25.1780   12.6390 H   0  0  0  0  0  0  0  0  0  0  0  0
   -0.5450   25.2740   13.5420 H   0  0  0  0  0  0  0  0  0  0  0  0
    0.7360   25.5990   11.4920 H   0  0  0  0  0  0  0  0  0  0  0  0
   -0.5960   26.8200   11.5540 H   0  0  0  0  0  0  0  0  0  0  0  0
    5.8510   23.8170    7.0920 H   0  0  0  0  0  0  0  0  0  0  0  0
    4.3950   24.7210    8.8720 H   0  0  0  0  0  0  0  0  0  0  0  0
    3.1330   26.8110    8.5410 H   0  0  0  0  0  0  0  0  0  0  0  0
   -0.0000   32.4990    6.7160 H   0  0  0  0  0  0  0  0  0  0  0  0
    3.6730   28.9970    5.6300 H   0  0  0  0  0  0  0  0  0  0  0  0
    4.7990   27.1710    4.5490 H   0  0  0  0  0  0  0  0  0  0  0  0
    6.4070   24.7090    4.4510 S   0  0  0  0  0  0  0  0  0  0  0  0
    6.0440   23.3030    4.2030 O   0  0  0  0  0  0  0  0  0  0  0  0
    6.4230   25.5200    3.2260 O   0  0  0  0  0  0  0  0  0  0  0  0
    7.9440   24.7230    5.1980 N   0  0  0  0  0  0  0  0  0  0  0  0
    8.6410   24.0120    4.9250 H   0  0  0  0  0  0  0  0  0  0  0  0
    8.3900   25.6610    5.3250 H   0  0  0  0  0  0  0  0  0  0  0  0
  1 14  2  0  0  0  0
  1 21  1  0  0  0  0
  1 22  1  0  0  0  0
  2 18  2  0  0  0  0
  2 19  1  0  0  0  0
  2 25  1  0  0  0  0
  3  4  1  0  0  0  0
  3 16  1  0  0  0  0
  3 26  1  0  0  0  0
  3 27  1  0  0  0  0
  4  5  1  0  0  0  0
  4  9  1  0  0  0  0
  4 28  1  0  0  0  0
  5  6  1  0  0  0  0
  5 29  1  0  0  0  0
  5 30  1  0  0  0  0
  6  7  1  0  0  0  0
  6 31  1  0  0  0  0
  6 32  1  0  0  0  0
  7  8  1  0  0  0  0
  7 33  1  0  0  0  0
  7 34  1  0  0  0  0
  8  9  1  0  0  0  0
  8 35  1  0  0  0  0
  8 36  1  0  0  0  0
  9 37  1  0  0  0  0
  9 38  1  0  0  0  0
 10 11  2  0  0  0  0
 10 24  1  0  0  0  0
 10 45  1  0  0  0  0
 11 12  1  0  0  0  0
 11 39  1  0  0  0  0
 12 13  2  0  0  0  0
 12 40  1  0  0  0  0
 13 23  1  0  0  0  0
 13 41  1  0  0  0  0
 14 15  1  0  0  0  0
 15 16  1  0  0  0  0
 15 17  2  0  0  0  0
 17 18  1  0  0  0  0
 17 20  1  0  0  0  0
 19 20  1  0  0  0  0
 19 42  1  0  0  0  0
 20 21  2  0  0  0  0
 22 23  1  0  0  0  0
 22 43  1  0  0  0  0
 23 24  2  0  0  0  0
 24 44  1  0  0  0  0
 45 46  2  0  0  0  0
 45 47  2  0  0  0  0
 45 48  1  0  0  0  0
 48 49  1  0  0  0  0
 48 50  1  0  0  0  0
M  END
$$$$
