ejm_50
                    3D
 Schrodinger Suite 2022-3.
 33 34  0  0  1  0  0  0  0  0999 V2000
   -3.1380   22.6080  -29.6420 C   0  0  0  0  0  0  0  0  0  0  0  0
   -3.5930   21.5170  -28.8830 C   0  0  0  0  0  0  0  0  0  0  0  0
   -2.7770   20.8860  -27.9450 C   0  0  0  0  0  0  0  0  0  0  0  0
   -5.1840   25.2250  -31.5170 C   0  0  0  0  0  0  0  0  0  0  0  0
   -4.0140   23.1240  -30.7450 C   0  0  0  0  0  0  0  0  0  0  0  0
   -5.8520   24.6490  -32.6100 C   0  0  0  0  0  0  0  0  0  0  0  0
   -6.7130   25.4550  -33.3680 C   0  0  0  0  0  0  0  0  0  0  0  0
   -1.8500   23.0880  -29.3770 C   0  0  0  0  0  0  0  0  0  0  0  0
   -1.4800   21.3640  -27.7310 C   0  0  0  0  0  0  0  0  0  0  0  0
   -1.0170   22.4770  -28.4360 C   0  0  0  0  0  0  0  0  0  0  0  0
   -5.1950   20.9520  -29.1200 Cl  0  0  0  0  0  0  0  0  0  0  0  0
   -4.4260   22.4010  -31.6270 O   0  0  0  0  0  0  0  0  0  0  0  0
   -4.3290   24.4950  -30.6450 N   0  0  0  0  0  0  0  0  0  0  0  0
   -6.9220   26.7710  -33.1130 N   0  0  0  0  0  0  0  0  0  0  0  0
   -6.2510   27.3240  -32.0420 C   0  0  0  0  0  0  0  0  0  0  0  0
   -5.3750   26.5940  -31.2270 C   0  0  0  0  0  0  0  0  0  0  0  0
   -6.5560   28.6980  -31.8140 N   0  0  0  0  0  0  0  0  0  0  0  0
   -5.8050   29.6100  -31.0360 C   0  0  0  0  0  0  0  0  0  0  0  0
   -4.8040   29.2810  -30.4390 O   0  0  0  0  0  0  0  0  0  0  0  0
   -6.3800   31.0370  -31.0120 C   0  0  0  0  0  0  0  0  0  0  0  0
   -1.2510   24.4670  -30.2010 Cl  0  0  0  0  0  0  0  0  0  0  0  0
   -3.1270   20.0230  -27.3750 H   0  0  0  0  0  0  0  0  0  0  0  0
   -5.7340   23.5930  -32.8710 H   0  0  0  0  0  0  0  0  0  0  0  0
   -7.2700   25.0320  -34.2210 H   0  0  0  0  0  0  0  0  0  0  0  0
   -0.8280   20.8700  -27.0020 H   0  0  0  0  0  0  0  0  0  0  0  0
   -0.0120   22.8610  -28.2370 H   0  0  0  0  0  0  0  0  0  0  0  0
   -3.9220   25.0270  -29.8550 H   0  0  0  0  0  0  0  0  0  0  0  0
   -4.8560   27.0690  -30.3900 H   0  0  0  0  0  0  0  0  0  0  0  0
   -7.4580   29.0230  -32.2320 H   0  0  0  0  0  0  0  0  0  0  0  0
   -7.3520   31.1340  -31.5490 H   0  0  0  0  0  0  0  0  0  0  0  0
   -6.4870   31.3880  -29.9530 H   0  0  0  0  0  0  0  0  0  0  0  0
   -5.3820   31.8840  -31.5950 O   0  0  0  0  0  0  0  0  0  0  0  0
   -5.7660   32.2420  -32.4650 H   0  0  0  0  0  0  0  0  0  0  0  0
  1  2  2  0  0  0  0
  1  5  1  0  0  0  0
  1  8  1  0  0  0  0
  2  3  1  0  0  0  0
  2 11  1  0  0  0  0
  3  9  2  0  0  0  0
  3 22  1  0  0  0  0
  4  6  1  0  0  0  0
  4 13  1  0  0  0  0
  4 16  2  0  0  0  0
  5 12  2  0  0  0  0
  5 13  1  0  0  0  0
  6  7  2  0  0  0  0
  6 23  1  0  0  0  0
  7 14  1  0  0  0  0
  7 24  1  0  0  0  0
  8 10  2  0  0  0  0
  8 21  1  0  0  0  0
  9 10  1  0  0  0  0
  9 25  1  0  0  0  0
 10 26  1  0  0  0  0
 13 27  1  0  0  0  0
 14 15  2  0  0  0  0
 15 16  1  0  0  0  0
 15 17  1  0  0  0  0
 16 28  1  0  0  0  0
 17 18  1  0  0  0  0
 17 29  1  0  0  0  0
 18 19  2  0  0  0  0
 18 20  1  0  0  0  0
 20 30  1  0  0  0  0
 20 31  1  0  0  0  0
 20 32  1  0  0  0  0
 32 33  1  0  0  0  0
M  END
$$$$
