p38a_2ff
 OpenBabel02232411163D
Structure written by MMmdl.
 49 52  0  0  1  0  0  0  0  0999 V2000
   36.3690   36.0700   15.7530 C   0  0  0  0  0  0  0  0  0  0  0  0
   34.6010   35.0380   21.3160 C   0  0  0  0  0  0  0  0  0  0  0  0
   35.6950   35.5880   16.8710 C   0  0  0  0  0  0  0  0  0  0  0  0
   34.1150   39.1580   23.8000 C   0  0  0  0  0  0  0  0  0  0  0  0
   34.7630   37.9100   21.4270 C   0  0  0  0  0  0  0  0  0  0  0  0
   35.1810   37.2270   20.2330 C   0  0  0  0  0  0  0  0  0  0  0  0
   37.6620   36.5630   15.9670 C   0  0  0  0  0  0  0  0  0  0  0  0
   38.2930   36.5560   17.2140 C   0  0  0  0  0  0  0  0  0  0  0  0
   37.5800   36.1020   18.3300 C   0  0  0  0  0  0  0  0  0  0  0  0
   34.4060   37.1620   22.5890 C   0  0  0  0  0  0  0  0  0  0  0  0
   34.7120   39.3260   21.5360 C   0  0  0  0  0  0  0  0  0  0  0  0
   35.1390   35.8750   20.2090 C   0  0  0  0  0  0  0  0  0  0  0  0
   36.2800   35.6210   18.1530 C   0  0  0  0  0  0  0  0  0  0  0  0
   33.9940   35.0040   23.7690 C   0  0  0  0  0  0  0  0  0  0  0  0
   34.4780   35.0730   16.7550 F   0  0  0  0  0  0  0  0  0  0  0  0
   35.5280   35.0260   19.1740 O   0  0  0  0  0  0  0  0  0  0  0  0
   34.3970   39.9610   22.6750 N   0  0  0  0  0  0  0  0  0  0  0  0
   34.3760   33.8490   21.2540 O   0  0  0  0  0  0  0  0  0  0  0  0
   34.3430   35.7600   22.5330 N   0  0  0  0  0  0  0  0  0  0  0  0
   34.1020   37.7760   23.7770 N   0  0  0  0  0  0  0  0  0  0  0  0
   33.7670   39.8080   24.9590 N   0  0  0  0  0  0  0  0  0  0  0  0
   35.9050   36.0870   14.7640 H   0  0  0  0  0  0  0  0  0  0  0  0
   35.5380   37.8290   19.3940 H   0  0  0  0  0  0  0  0  0  0  0  0
   39.3150   36.9280   17.3280 H   0  0  0  0  0  0  0  0  0  0  0  0
   38.0360   36.1540   19.3210 H   0  0  0  0  0  0  0  0  0  0  0  0
   34.9340   39.9530   20.6560 H   0  0  0  0  0  0  0  0  0  0  0  0
   34.7240   35.2540   24.5860 H   0  0  0  0  0  0  0  0  0  0  0  0
   32.9640   35.2870   24.1190 H   0  0  0  0  0  0  0  0  0  0  0  0
   34.0270   33.9010   23.5730 H   0  0  0  0  0  0  0  0  0  0  0  0
   33.8480   40.8430   25.0110 H   0  0  0  0  0  0  0  0  0  0  0  0
   38.3040   37.0980   14.9310 F   0  0  0  0  0  0  0  0  0  0  0  0
   32.3260   39.0520   28.4160 C   0  0  0  0  0  0  0  0  0  0  0  0
   32.4080   39.6310   26.9980 C   0  0  0  0  0  0  0  0  0  0  0  0
   33.6910   39.1330   26.2910 C   0  0  2  0  0  0  0  0  0  0  0  0
   34.9620   39.4840   27.1040 C   0  0  0  0  0  0  0  0  0  0  0  0
   34.8640   38.9420   28.5350 C   0  0  0  0  0  0  0  0  0  0  0  0
   33.5800   39.4520   29.2160 C   0  0  2  0  0  0  0  0  0  0  0  0
   32.2440   37.9400   28.3590 H   0  0  0  0  0  0  0  0  0  0  0  0
   31.4160   39.4400   28.9270 H   0  0  0  0  0  0  0  0  0  0  0  0
   32.4200   40.7450   27.0500 H   0  0  0  0  0  0  0  0  0  0  0  0
   31.5150   39.3120   26.4110 H   0  0  0  0  0  0  0  0  0  0  0  0
   33.6300   38.0190   26.1580 H   0  0  0  0  0  0  0  0  0  0  0  0
   35.8520   39.0340   26.6060 H   0  0  0  0  0  0  0  0  0  0  0  0
   35.0940   40.5930   27.1330 H   0  0  0  0  0  0  0  0  0  0  0  0
   34.8670   37.8260   28.5080 H   0  0  0  0  0  0  0  0  0  0  0  0
   35.7570   39.2770   29.1150 H   0  0  0  0  0  0  0  0  0  0  0  0
   33.6190   40.5570   29.3750 H   0  0  0  0  0  0  0  0  0  0  0  0
   33.4960   38.9520   30.5640 O   0  0  0  0  0  0  0  0  0  0  0  0
   33.4690   37.9620   30.5540 H   0  0  0  0  0  0  0  0  0  0  0  0
  1  3  2  0  0  0  0
  1  7  1  0  0  0  0
  1 22  1  0  0  0  0
  2 12  1  0  0  0  0
  2 18  2  0  0  0  0
  2 19  1  0  0  0  0
  3 13  1  0  0  0  0
  3 15  1  0  0  0  0
  4 17  2  0  0  0  0
  4 20  1  0  0  0  0
  4 21  1  0  0  0  0
  5  6  1  0  0  0  0
  5 10  1  0  0  0  0
  5 11  2  0  0  0  0
  6 12  2  0  0  0  0
  6 23  1  0  0  0  0
  7  8  2  0  0  0  0
  7 31  1  0  0  0  0
  8  9  1  0  0  0  0
  8 24  1  0  0  0  0
  9 13  2  0  0  0  0
  9 25  1  0  0  0  0
 10 19  1  0  0  0  0
 10 20  2  0  0  0  0
 11 17  1  0  0  0  0
 11 26  1  0  0  0  0
 12 16  1  0  0  0  0
 13 16  1  0  0  0  0
 14 19  1  0  0  0  0
 14 27  1  0  0  0  0
 14 28  1  0  0  0  0
 14 29  1  0  0  0  0
 21 30  1  0  0  0  0
 21 34  1  0  0  0  0
 32 33  1  0  0  0  0
 32 37  1  0  0  0  0
 32 38  1  0  0  0  0
 32 39  1  0  0  0  0
 33 34  1  0  0  0  0
 33 40  1  0  0  0  0
 33 41  1  0  0  0  0
 34 35  1  0  0  0  0
 34 42  1  6  0  0  0
 35 36  1  0  0  0  0
 35 43  1  0  0  0  0
 35 44  1  0  0  0  0
 36 37  1  0  0  0  0
 36 45  1  0  0  0  0
 36 46  1  0  0  0  0
 37 47  1  1  0  0  0
 37 48  1  0  0  0  0
 48 49  1  0  0  0  0
M  END
$$$$
