18635-1
 OpenBabel02232411163D
Structure written by MMmdl.
 44 45  0  0  0  0  0  0  0  0999 V2000
   23.8170   12.6260   30.3600 C   0  0  0  0  0  0  0  0  0  0  0  0
   23.3930   11.1750   30.4760 C   0  0  0  0  0  0  0  0  0  0  0  0
   22.1430   11.2530   31.2760 O   0  0  0  0  0  0  0  0  0  0  0  0
   21.5220   10.1060   31.6170 C   0  0  0  0  0  0  0  0  0  0  0  0
   22.0180    8.9220   31.1860 N   0  0  0  0  0  0  0  0  0  0  0  0
   21.3050    7.7740   31.5040 C   0  0  0  0  0  0  0  0  0  0  0  0
   20.1430    7.7980   32.2690 C   0  0  0  0  0  0  0  0  0  0  0  0
   19.6360    9.0440   32.7270 C   0  0  0  0  0  0  0  0  0  0  0  0
   18.4830    9.0800   33.4680 N   0  0  0  0  0  0  0  0  0  0  0  0
   20.3320   10.2500   32.3910 C   0  0  0  0  0  0  0  0  0  0  0  0
   19.8960   11.5450   32.7410 C   0  0  0  0  0  0  0  0  0  0  0  0
   19.5870   12.6360   32.9850 N   0  0  0  0  0  0  0  0  0  0  0  0
   21.9010    6.6220   30.9390 N   0  0  0  0  0  0  0  0  0  0  0  0
   21.3610    5.3120   30.8830 C   0  0  0  0  0  0  0  0  0  0  0  0
   20.3170    5.0140   31.4220 O   0  0  0  0  0  0  0  0  0  0  0  0
   22.1860    4.3570   30.0320 C   0  0  0  0  0  0  0  0  0  0  0  0
   23.5070    4.0220   30.6760 C   0  0  0  0  0  0  0  0  0  0  0  0
   24.7130    4.6760   30.3620 C   0  0  0  0  0  0  0  0  0  0  0  0
   24.8670    5.7330   29.3130 C   0  0  0  0  0  0  0  0  0  0  0  0
   25.8780    4.3190   31.0710 C   0  0  0  0  0  0  0  0  0  0  0  0
   25.8600    3.3340   32.0510 C   0  0  0  0  0  0  0  0  0  0  0  0
   24.6640    2.6540   32.3430 C   0  0  0  0  0  0  0  0  0  0  0  0
   24.6520    1.5870   33.3890 C   0  0  0  0  0  0  0  0  0  0  0  0
   23.5040    3.0010   31.6440 C   0  0  0  0  0  0  0  0  0  0  0  0
   24.0480   13.0640   31.3570 H   0  0  0  0  0  0  0  0  0  0  0  0
   23.0220   13.2390   29.8730 H   0  0  0  0  0  0  0  0  0  0  0  0
   24.7360   12.6810   29.7230 H   0  0  0  0  0  0  0  0  0  0  0  0
   23.1330   10.7280   29.4900 H   0  0  0  0  0  0  0  0  0  0  0  0
   24.1280   10.5570   31.0380 H   0  0  0  0  0  0  0  0  0  0  0  0
   19.6050    6.8790   32.5090 H   0  0  0  0  0  0  0  0  0  0  0  0
   17.9890    8.2080   33.7380 H   0  0  0  0  0  0  0  0  0  0  0  0
   18.0750    9.9640   33.7720 H   0  0  0  0  0  0  0  0  0  0  0  0
   22.8180    6.7940   30.4820 H   0  0  0  0  0  0  0  0  0  0  0  0
   21.5950    3.4100   29.8960 H   0  0  0  0  0  0  0  0  0  0  0  0
   22.3280    4.8050   29.0180 H   0  0  0  0  0  0  0  0  0  0  0  0
   25.1260    6.7120   29.7960 H   0  0  0  0  0  0  0  0  0  0  0  0
   25.7230    5.4690   28.6370 H   0  0  0  0  0  0  0  0  0  0  0  0
   23.9730    5.8780   28.6760 H   0  0  0  0  0  0  0  0  0  0  0  0
   26.8200    4.8290   30.8440 H   0  0  0  0  0  0  0  0  0  0  0  0
   26.7790    3.0860   32.5890 H   0  0  0  0  0  0  0  0  0  0  0  0
   23.7000    1.0040   33.3850 H   0  0  0  0  0  0  0  0  0  0  0  0
   25.4940    0.8680   33.2290 H   0  0  0  0  0  0  0  0  0  0  0  0
   24.7780    2.0440   34.4030 H   0  0  0  0  0  0  0  0  0  0  0  0
   22.5810    2.4560   31.8490 H   0  0  0  0  0  0  0  0  0  0  0  0
  1  2  1  0  0  0  0
  1 25  1  0  0  0  0
  1 26  1  0  0  0  0
  1 27  1  0  0  0  0
  2  3  1  0  0  0  0
  2 28  1  0  0  0  0
  2 29  1  0  0  0  0
  3  4  1  0  0  0  0
  4 10  2  0  0  0  0
  4  5  1  0  0  0  0
  5  6  2  0  0  0  0
  6  7  1  0  0  0  0
  6 13  1  0  0  0  0
  7  8  2  0  0  0  0
  7 30  1  0  0  0  0
  8  9  1  0  0  0  0
  8 10  1  0  0  0  0
  9 31  1  0  0  0  0
  9 32  1  0  0  0  0
 10 11  1  0  0  0  0
 11 12  3  0  0  0  0
 13 14  1  0  0  0  0
 13 33  1  0  0  0  0
 14 15  2  0  0  0  0
 14 16  1  0  0  0  0
 16 17  1  0  0  0  0
 16 34  1  0  0  0  0
 16 35  1  0  0  0  0
 17 24  2  0  0  0  0
 17 18  1  0  0  0  0
 18 19  1  0  0  0  0
 18 20  2  0  0  0  0
 19 36  1  0  0  0  0
 19 37  1  0  0  0  0
 19 38  1  0  0  0  0
 20 21  1  0  0  0  0
 20 39  1  0  0  0  0
 21 22  2  0  0  0  0
 21 40  1  0  0  0  0
 22 23  1  0  0  0  0
 22 24  1  0  0  0  0
 23 41  1  0  0  0  0
 23 42  1  0  0  0  0
 23 43  1  0  0  0  0
 24 44  1  0  0  0  0
M  END
$$$$
