18652-1 flip
                    3D
 Schrodinger Suite 2022-3.
 55 56  0  0  1  0  0  0  0  0999 V2000
   25.3740    2.4560   31.1470 C   0  0  0  0  0  0  0  0  0  0  0  0
   24.0440    2.8350   31.0060 C   0  0  0  0  0  0  0  0  0  0  0  0
   23.6800    4.0220   30.3010 C   0  0  0  0  0  0  0  0  0  0  0  0
   24.7020    4.8300   29.8310 C   0  0  0  0  0  0  0  0  0  0  0  0
   26.0640    4.4750   30.0390 C   0  0  0  0  0  0  0  0  0  0  0  0
   26.4160    3.2600   30.6450 C   0  0  0  0  0  0  0  0  0  0  0  0
   22.2320    4.2940   30.0130 C   0  0  0  0  0  0  0  0  0  0  0  0
   21.4850    5.1960   30.9850 C   0  0  0  0  0  0  0  0  0  0  0  0
   22.0900    6.4640   31.1670 N   0  0  0  0  0  0  0  0  0  0  0  0
   21.4680    7.6380   31.6650 C   0  0  0  0  0  0  0  0  0  0  0  0
   20.4240    4.8960   31.4880 O   0  0  0  0  0  0  0  0  0  0  0  0
   22.1800    8.7720   31.3090 N   0  0  0  0  0  0  0  0  0  0  0  0
   21.6550    9.9770   31.6420 C   0  0  0  0  0  0  0  0  0  0  0  0
   20.4560   10.1440   32.4010 C   0  0  0  0  0  0  0  0  0  0  0  0
   19.7550    8.9520   32.7680 C   0  0  0  0  0  0  0  0  0  0  0  0
   20.2810    7.6870   32.3850 C   0  0  0  0  0  0  0  0  0  0  0  0
   27.1070    5.2670   29.6400 O   0  0  0  0  0  0  0  0  0  0  0  0
   26.8210    6.6170   29.1760 C   0  0  0  0  0  0  0  0  0  0  0  0
   22.9420    2.1370   31.4710 O   0  0  0  0  0  0  0  0  0  0  0  0
   23.1970    0.9170   32.2120 C   0  0  0  0  0  0  0  0  0  0  0  0
   18.5700    9.0110   33.4590 N   0  0  0  0  0  0  0  0  0  0  0  0
   20.0250   11.4500   32.7160 C   0  0  0  0  0  0  0  0  0  0  0  0
   22.2530   11.1050   31.2220 O   0  0  0  0  0  0  0  0  0  0  0  0
   23.5200   11.0310   30.4190 C   0  0  0  0  0  0  0  0  0  0  0  0
   23.9770   12.4840   30.4570 C   0  0  0  0  0  0  0  0  0  0  0  0
   19.7220   12.5470   32.9410 N   0  0  0  0  0  0  0  0  0  0  0  0
   25.6000    1.5150   31.6570 H   0  0  0  0  0  0  0  0  0  0  0  0
   24.4570    5.7370   29.2740 H   0  0  0  0  0  0  0  0  0  0  0  0
   19.7400    6.7760   32.6460 H   0  0  0  0  0  0  0  0  0  0  0  0
   21.6940    3.2990   30.0030 H   0  0  0  0  0  0  0  0  0  0  0  0
   22.1350    4.7670   28.9980 H   0  0  0  0  0  0  0  0  0  0  0  0
   23.0190    6.6250   30.7330 H   0  0  0  0  0  0  0  0  0  0  0  0
   27.8500    7.0390   29.0640 H   0  0  0  0  0  0  0  0  0  0  0  0
   26.3010    6.5820   28.1950 H   0  0  0  0  0  0  0  0  0  0  0  0
   26.2480    7.1830   29.9440 H   0  0  0  0  0  0  0  0  0  0  0  0
   22.1630    0.6100   32.4860 H   0  0  0  0  0  0  0  0  0  0  0  0
   23.6870    0.1680   31.5530 H   0  0  0  0  0  0  0  0  0  0  0  0
   23.8030    1.1360   33.1180 H   0  0  0  0  0  0  0  0  0  0  0  0
   18.0840    8.1470   33.7650 H   0  0  0  0  0  0  0  0  0  0  0  0
   18.1590    9.9040   33.7320 H   0  0  0  0  0  0  0  0  0  0  0  0
   24.2170   10.3510   30.9600 H   0  0  0  0  0  0  0  0  0  0  0  0
   23.1800   13.1630   30.0710 H   0  0  0  0  0  0  0  0  0  0  0  0
   24.2460   12.7970   31.4880 H   0  0  0  0  0  0  0  0  0  0  0  0
   24.8750   12.5970   29.8010 H   0  0  0  0  0  0  0  0  0  0  0  0
   28.0680    2.6580   30.7410 S   0  0  0  0  0  0  0  0  0  0  0  0
   28.9230    3.7000   31.3590 O   0  0  0  0  0  0  0  0  0  0  0  0
   28.5000    2.3520   29.3530 O   0  0  0  0  0  0  0  0  0  0  0  0
   28.1100    1.2230   31.7170 C   0  0  0  0  0  0  0  0  0  0  0  0
   27.6840    1.3780   32.7430 H   0  0  0  0  0  0  0  0  0  0  0  0
   27.5510    0.3620   31.2630 H   0  0  0  0  0  0  0  0  0  0  0  0
   29.1610    0.8570   31.8710 H   0  0  0  0  0  0  0  0  0  0  0  0
   23.2090   10.5350   29.0180 C   0  0  0  0  0  0  0  0  0  0  0  0
   22.8760    9.4710   29.0290 H   0  0  0  0  0  0  0  0  0  0  0  0
   22.4240   11.1550   28.5320 H   0  0  0  0  0  0  0  0  0  0  0  0
   24.1330   10.5970   28.3920 H   0  0  0  0  0  0  0  0  0  0  0  0
  1  2  1  0  0  0  0
  1  6  2  0  0  0  0
  1 27  1  0  0  0  0
  2  3  2  0  0  0  0
  2 19  1  0  0  0  0
  3  4  1  0  0  0  0
  3  7  1  0  0  0  0
  4  5  2  0  0  0  0
  4 28  1  0  0  0  0
  5  6  1  0  0  0  0
  5 17  1  0  0  0  0
  6 45  1  0  0  0  0
  7  8  1  0  0  0  0
  7 30  1  0  0  0  0
  7 31  1  0  0  0  0
  8  9  1  0  0  0  0
  8 11  2  0  0  0  0
  9 10  1  0  0  0  0
  9 32  1  0  0  0  0
 10 12  1  0  0  0  0
 10 16  2  0  0  0  0
 12 13  2  0  0  0  0
 13 14  1  0  0  0  0
 13 23  1  0  0  0  0
 14 15  2  0  0  0  0
 14 22  1  0  0  0  0
 15 16  1  0  0  0  0
 15 21  1  0  0  0  0
 16 29  1  0  0  0  0
 17 18  1  0  0  0  0
 18 33  1  0  0  0  0
 18 34  1  0  0  0  0
 18 35  1  0  0  0  0
 19 20  1  0  0  0  0
 20 36  1  0  0  0  0
 20 37  1  0  0  0  0
 20 38  1  0  0  0  0
 21 39  1  0  0  0  0
 21 40  1  0  0  0  0
 22 26  3  0  0  0  0
 23 24  1  0  0  0  0
 24 25  1  0  0  0  0
 24 41  1  0  0  0  0
 24 52  1  0  0  0  0
 25 42  1  0  0  0  0
 25 43  1  0  0  0  0
 25 44  1  0  0  0  0
 45 46  2  0  0  0  0
 45 47  2  0  0  0  0
 45 48  1  0  0  0  0
 48 49  1  0  0  0  0
 48 50  1  0  0  0  0
 48 51  1  0  0  0  0
 52 53  1  0  0  0  0
 52 54  1  0  0  0  0
 52 55  1  0  0  0  0
M  END
$$$$
