p38a_2aa
 OpenBabel02232411163D
Structure written by MMmdl.
 43 45  0  0  0  0  0  0  0  0999 V2000
   38.2730   36.5270   17.1930 C   0  0  0  0  0  0  0  0  0  0  0  0
   34.5780   35.1320   21.2920 C   0  0  0  0  0  0  0  0  0  0  0  0
   37.4820   36.0900   18.2520 C   0  0  0  0  0  0  0  0  0  0  0  0
   33.9630   39.2170   23.8100 C   0  0  0  0  0  0  0  0  0  0  0  0
   33.5200   39.1600   26.2900 C   0  0  0  0  0  0  0  0  0  0  0  0
   34.6380   38.0090   21.4260 C   0  0  0  0  0  0  0  0  0  0  0  0
   35.0230   37.3510   20.2050 C   0  0  0  0  0  0  0  0  0  0  0  0
   37.6310   36.6770   15.9560 C   0  0  0  0  0  0  0  0  0  0  0  0
   36.2810   36.3840   15.7480 C   0  0  0  0  0  0  0  0  0  0  0  0
   35.5100   35.9370   16.8270 C   0  0  0  0  0  0  0  0  0  0  0  0
   34.3210   37.2370   22.5830 C   0  0  0  0  0  0  0  0  0  0  0  0
   34.5670   39.4210   21.5530 C   0  0  0  0  0  0  0  0  0  0  0  0
   35.0210   35.9990   20.1680 C   0  0  0  0  0  0  0  0  0  0  0  0
   36.1160   35.7830   18.0770 C   0  0  0  0  0  0  0  0  0  0  0  0
   34.0160   35.0390   23.7450 C   0  0  0  0  0  0  0  0  0  0  0  0
   38.0120   35.9580   19.4610 F   0  0  0  0  0  0  0  0  0  0  0  0
   35.3850   35.1750   19.1060 O   0  0  0  0  0  0  0  0  0  0  0  0
   34.2510   40.0360   22.7050 N   0  0  0  0  0  0  0  0  0  0  0  0
   34.4300   33.9320   21.2440 O   0  0  0  0  0  0  0  0  0  0  0  0
   34.3150   35.8370   22.5230 N   0  0  0  0  0  0  0  0  0  0  0  0
   33.9960   37.8380   23.7770 N   0  0  0  0  0  0  0  0  0  0  0  0
   33.5390   39.8450   24.9650 N   0  0  0  0  0  0  0  0  0  0  0  0
   39.3300   36.7780   17.3260 H   0  0  0  0  0  0  0  0  0  0  0  0
   33.7810   40.1870   27.4250 C   0  0  0  0  0  0  0  0  0  0  0  0
   35.3110   37.9700   19.3530 H   0  0  0  0  0  0  0  0  0  0  0  0
   35.8160   36.5150   14.7680 H   0  0  0  0  0  0  0  0  0  0  0  0
   34.4450   35.7260   16.6860 H   0  0  0  0  0  0  0  0  0  0  0  0
   34.7730   40.0640   20.6810 H   0  0  0  0  0  0  0  0  0  0  0  0
   34.5750   35.4550   24.6260 H   0  0  0  0  0  0  0  0  0  0  0  0
   32.9150   35.0660   23.9600 H   0  0  0  0  0  0  0  0  0  0  0  0
   34.3320   33.9720   23.5930 H   0  0  0  0  0  0  0  0  0  0  0  0
   33.5670   40.8810   25.0000 H   0  0  0  0  0  0  0  0  0  0  0  0
   38.3360   37.1620   14.9370 F   0  0  0  0  0  0  0  0  0  0  0  0
   32.1380   38.4840   26.5070 C   0  0  0  0  0  0  0  0  0  0  0  0
   32.1310   37.1320   26.0420 O   0  0  0  0  0  0  0  0  0  0  0  0
   32.5940   37.0800   25.1640 H   0  0  0  0  0  0  0  0  0  0  0  0
   31.9140   38.3820   27.5980 H   0  0  0  0  0  0  0  0  0  0  0  0
   31.3320   39.0490   25.9820 H   0  0  0  0  0  0  0  0  0  0  0  0
   34.9540   40.9720   27.1580 O   0  0  0  0  0  0  0  0  0  0  0  0
   32.9100   40.8660   27.5710 H   0  0  0  0  0  0  0  0  0  0  0  0
   34.0300   39.6460   28.3720 H   0  0  0  0  0  0  0  0  0  0  0  0
   34.6710   41.7220   26.5440 H   0  0  0  0  0  0  0  0  0  0  0  0
   34.3260   38.3730   26.3310 H   0  0  0  0  0  0  0  0  0  0  0  0
  1  3  2  0  0  0  0
  1  8  1  0  0  0  0
  1 23  1  0  0  0  0
  2 13  1  0  0  0  0
  2 19  2  0  0  0  0
  2 20  1  0  0  0  0
  3 14  1  0  0  0  0
  3 16  1  0  0  0  0
  4 18  2  0  0  0  0
  4 21  1  0  0  0  0
  4 22  1  0  0  0  0
  5 22  1  0  0  0  0
  5 24  1  0  0  0  0
  5 34  1  0  0  0  0
  5 43  1  0  0  0  0
  6  7  1  0  0  0  0
  6 11  1  0  0  0  0
  6 12  2  0  0  0  0
  7 13  2  0  0  0  0
  7 25  1  0  0  0  0
  8  9  2  0  0  0  0
  8 33  1  0  0  0  0
  9 10  1  0  0  0  0
  9 26  1  0  0  0  0
 10 14  2  0  0  0  0
 10 27  1  0  0  0  0
 11 20  1  0  0  0  0
 11 21  2  0  0  0  0
 12 18  1  0  0  0  0
 12 28  1  0  0  0  0
 13 17  1  0  0  0  0
 14 17  1  0  0  0  0
 15 20  1  0  0  0  0
 15 29  1  0  0  0  0
 15 30  1  0  0  0  0
 15 31  1  0  0  0  0
 22 32  1  0  0  0  0
 24 39  1  0  0  0  0
 24 40  1  0  0  0  0
 24 41  1  0  0  0  0
 34 35  1  0  0  0  0
 34 37  1  0  0  0  0
 34 38  1  0  0  0  0
 35 36  1  0  0  0  0
 39 42  1  0  0  0  0
M  END
$$$$
