p38a_3fmk
 OpenBabel02232411163D
Structure written by MMmdl.
 46 49  0  0  1  0  0  0  0  0999 V2000
   35.7160   35.5560   16.9450 C   0  0  0  0  0  0  0  0  0  0  0  0
   36.3600   36.0360   15.8080 C   0  0  0  0  0  0  0  0  0  0  0  0
   33.4440   35.0210   23.5970 C   0  0  0  0  0  0  0  0  0  0  0  0
   38.3080   36.5590   17.2250 C   0  0  0  0  0  0  0  0  0  0  0  0
   34.7720   39.3040   21.5870 C   0  0  0  0  0  0  0  0  0  0  0  0
   32.7390   39.2930   26.0290 C   0  0  1  0  0  0  0  0  0  0  0  0
   33.4660   38.1080   26.7310 C   0  0  0  0  0  0  0  0  0  0  0  0
   33.8860   39.1480   23.7540 C   0  0  0  0  0  0  0  0  0  0  0  0
   34.4720   35.0280   21.2880 C   0  0  0  0  0  0  0  0  0  0  0  0
   35.1490   35.8540   20.2500 C   0  0  0  0  0  0  0  0  0  0  0  0
   35.2460   37.2020   20.2990 C   0  0  0  0  0  0  0  0  0  0  0  0
   36.3300   35.6040   18.2130 C   0  0  0  0  0  0  0  0  0  0  0  0
   37.6260   36.1050   18.3590 C   0  0  0  0  0  0  0  0  0  0  0  0
   34.7320   37.8910   21.4520 C   0  0  0  0  0  0  0  0  0  0  0  0
   34.1710   37.1560   22.5380 C   0  0  0  0  0  0  0  0  0  0  0  0
   33.6160   39.8130   24.9380 N   0  0  0  0  0  0  0  0  0  0  0  0
   37.6510   36.5470   15.9910 C   0  0  0  0  0  0  0  0  0  0  0  0
   38.2660   37.0790   14.9370 F   0  0  0  0  0  0  0  0  0  0  0  0
   34.5040   35.0250   16.8600 F   0  0  0  0  0  0  0  0  0  0  0  0
   35.6180   34.9970   19.2580 O   0  0  0  0  0  0  0  0  0  0  0  0
   34.2710   33.8360   21.2120 O   0  0  0  0  0  0  0  0  0  0  0  0
   34.0370   35.7620   22.4470 N   0  0  0  0  0  0  0  0  0  0  0  0
   33.7470   37.7800   23.6880 N   0  0  0  0  0  0  0  0  0  0  0  0
   34.3660   39.9420   22.6950 N   0  0  0  0  0  0  0  0  0  0  0  0
   31.3430   38.9120   25.5360 C   0  0  0  0  0  0  0  0  0  0  0  0
   32.9370   37.8910   28.0980 N   0  0  0  0  0  0  0  0  0  0  0  0
   33.2150   38.7070   29.1530 N   0  0  0  0  0  0  0  0  0  0  0  0
   32.5480   38.1450   30.2000 C   0  0  0  0  0  0  0  0  0  0  0  0
   31.8750   36.9800   29.7450 N   0  0  0  0  0  0  0  0  0  0  0  0
   32.1240   36.8540   28.4790 N   0  0  0  0  0  0  0  0  0  0  0  0
   35.8760   36.0380   14.8290 H   0  0  0  0  0  0  0  0  0  0  0  0
   34.1070   35.1280   24.4980 H   0  0  0  0  0  0  0  0  0  0  0  0
   32.4330   35.4460   23.8450 H   0  0  0  0  0  0  0  0  0  0  0  0
   33.3340   33.9350   23.3460 H   0  0  0  0  0  0  0  0  0  0  0  0
   39.3260   36.9470   17.3140 H   0  0  0  0  0  0  0  0  0  0  0  0
   35.1380   39.9240   20.7530 H   0  0  0  0  0  0  0  0  0  0  0  0
   32.6560   40.1540   26.7590 H   0  0  0  0  0  0  0  0  0  0  0  0
   33.3250   37.1560   26.1400 H   0  0  0  0  0  0  0  0  0  0  0  0
   34.5680   38.3380   26.7990 H   0  0  0  0  0  0  0  0  0  0  0  0
   35.7110   37.7990   19.5100 H   0  0  0  0  0  0  0  0  0  0  0  0
   38.1030   36.1680   19.3400 H   0  0  0  0  0  0  0  0  0  0  0  0
   33.6850   40.8530   24.9370 H   0  0  0  0  0  0  0  0  0  0  0  0
   30.8880   39.7640   24.9800 H   0  0  0  0  0  0  0  0  0  0  0  0
   31.3790   38.0220   24.8630 H   0  0  0  0  0  0  0  0  0  0  0  0
   30.6870   38.6640   26.4010 H   0  0  0  0  0  0  0  0  0  0  0  0
   32.5250   38.5140   31.2250 H   0  0  0  0  0  0  0  0  0  0  0  0
  1  2  2  0  0  0  0
  1 12  1  0  0  0  0
  1 19  1  0  0  0  0
  2 17  1  0  0  0  0
  2 31  1  0  0  0  0
  3 22  1  0  0  0  0
  3 32  1  0  0  0  0
  3 33  1  0  0  0  0
  3 34  1  0  0  0  0
  4 13  1  0  0  0  0
  4 17  2  0  0  0  0
  4 35  1  0  0  0  0
  5 14  2  0  0  0  0
  5 24  1  0  0  0  0
  5 36  1  0  0  0  0
  6  7  1  0  0  0  0
  6 16  1  0  0  0  0
  6 25  1  0  0  0  0
  6 37  1  6  0  0  0
  7 26  1  0  0  0  0
  7 38  1  0  0  0  0
  7 39  1  0  0  0  0
  8 16  1  0  0  0  0
  8 23  1  0  0  0  0
  8 24  2  0  0  0  0
  9 10  1  0  0  0  0
  9 21  2  0  0  0  0
  9 22  1  0  0  0  0
 10 11  2  0  0  0  0
 10 20  1  0  0  0  0
 11 14  1  0  0  0  0
 11 40  1  0  0  0  0
 12 13  2  0  0  0  0
 12 20  1  0  0  0  0
 13 41  1  0  0  0  0
 14 15  1  0  0  0  0
 15 22  1  0  0  0  0
 15 23  2  0  0  0  0
 16 42  1  0  0  0  0
 17 18  1  0  0  0  0
 25 43  1  0  0  0  0
 25 44  1  0  0  0  0
 25 45  1  0  0  0  0
 26 27  1  0  0  0  0
 26 30  1  0  0  0  0
 27 28  2  0  0  0  0
 28 29  1  0  0  0  0
 28 46  1  0  0  0  0
 29 30  2  0  0  0  0
M  END
$$$$
