23474
                    3D
 Schrodinger Suite 2022-3.
 48 50  0  0  1  0  0  0  0  0999 V2000
   43.7890   14.1960   16.4970 S   0  0  0  0  0  0  0  0  0  0  0  0
   43.4140   15.5360   15.4400 C   0  0  0  0  0  0  0  0  0  0  0  0
   42.4680   15.1360   14.5300 C   0  0  0  0  0  0  0  0  0  0  0  0
   42.0530   13.7610   14.7010 C   0  0  0  0  0  0  0  0  0  0  0  0
   42.6380   13.1110   15.7550 C   0  0  0  0  0  0  0  0  0  0  0  0
   44.0310   16.9070   15.7200 C   0  0  0  0  0  0  0  0  0  0  0  0
   44.2380   17.1330   16.9320 O   0  0  0  0  0  0  0  0  0  0  0  0
   44.2850   17.6860   14.8000 O   0  5  0  0  0  0  0  0  0  0  0  0
   42.3860   11.7750   16.2580 C   0  0  0  0  0  0  0  0  0  0  0  0
   41.0990   11.2300   16.1490 C   0  0  0  0  0  0  0  0  0  0  0  0
   40.8520    9.8790   16.4770 C   0  0  0  0  0  0  0  0  0  0  0  0
   41.8730    9.1090   17.0520 C   0  0  0  0  0  0  0  0  0  0  0  0
   43.1350    9.6860   17.2440 C   0  0  0  0  0  0  0  0  0  0  0  0
   43.4080   10.9880   16.8350 C   0  0  0  0  0  0  0  0  0  0  0  0
   40.8220   12.9340   13.5030 Br  0  0  0  0  0  0  0  0  0  0  0  0
   42.0530   15.9460   13.5240 O   0  0  0  0  0  0  0  0  0  0  0  0
   40.6150   16.2230   13.5120 C   0  0  0  0  0  0  0  0  0  0  0  0
   40.5960   17.6550   12.8930 C   0  0  0  0  0  0  0  0  0  0  0  0
   39.4660   18.0580   12.5320 O   0  5  0  0  0  0  0  0  0  0  0  0
   41.6720   18.2560   12.8080 O   0  0  0  0  0  0  0  0  0  0  0  0
   39.5170    9.3910   16.2710 N   0  0  0  0  0  0  0  0  0  0  0  0
   39.3700    7.9170   16.0650 C   0  0  0  0  0  0  0  0  0  0  0  0
   40.2540   11.8350   15.8090 H   0  0  0  0  0  0  0  0  0  0  0  0
   41.7060    8.0780   17.3520 H   0  0  0  0  0  0  0  0  0  0  0  0
   43.9130    9.0820   17.7170 H   0  0  0  0  0  0  0  0  0  0  0  0
   44.4170   11.3790   16.9590 H   0  0  0  0  0  0  0  0  0  0  0  0
   40.1250   15.4810   12.8540 H   0  0  0  0  0  0  0  0  0  0  0  0
   40.1810   16.1990   14.5320 H   0  0  0  0  0  0  0  0  0  0  0  0
   39.0330    9.9040   15.5130 H   0  0  0  0  0  0  0  0  0  0  0  0
   40.1460    7.5040   15.3670 H   0  0  0  0  0  0  0  0  0  0  0  0
   39.4980    7.4220   17.0650 H   0  0  0  0  0  0  0  0  0  0  0  0
   37.1950    8.1230   16.1220 H   0  0  0  0  0  0  0  0  0  0  0  0
   36.3190    5.6400   15.1770 C   0  0  0  0  0  0  0  0  0  0  0  0
   37.7010    6.0530   15.7110 C   0  0  0  0  0  0  0  0  0  0  0  0
   37.9600    7.5660   15.5240 C   0  0  0  0  0  0  0  0  0  0  0  0
   37.7950    7.9460   14.0360 C   0  0  0  0  0  0  0  0  0  0  0  0
   36.3930    7.5690   13.5320 C   0  0  0  0  0  0  0  0  0  0  0  0
   36.1140    6.0680   13.7140 C   0  0  0  0  0  0  0  0  0  0  0  0
   35.5250    6.1040   15.8090 H   0  0  0  0  0  0  0  0  0  0  0  0
   36.2160    4.5310   15.2520 H   0  0  0  0  0  0  0  0  0  0  0  0
   38.4890    5.4700   15.1770 H   0  0  0  0  0  0  0  0  0  0  0  0
   37.7560    5.7940   16.7950 H   0  0  0  0  0  0  0  0  0  0  0  0
   37.9360    9.0430   13.9010 H   0  0  0  0  0  0  0  0  0  0  0  0
   38.5640    7.4120   13.4310 H   0  0  0  0  0  0  0  0  0  0  0  0
   35.6330    8.1480   14.1060 H   0  0  0  0  0  0  0  0  0  0  0  0
   36.3040    7.8350   12.4580 H   0  0  0  0  0  0  0  0  0  0  0  0
   36.8010    5.4790   13.0600 H   0  0  0  0  0  0  0  0  0  0  0  0
   35.0650    5.8400   13.4130 H   0  0  0  0  0  0  0  0  0  0  0  0
  1  2  1  0  0  0  0
  1  5  1  0  0  0  0
  2  3  2  0  0  0  0
  2  6  1  0  0  0  0
  3  4  1  0  0  0  0
  3 16  1  0  0  0  0
  4  5  2  0  0  0  0
  4 15  1  0  0  0  0
  5  9  1  0  0  0  0
  6  7  2  0  0  0  0
  6  8  1  0  0  0  0
  9 10  1  0  0  0  0
  9 14  2  0  0  0  0
 10 11  2  0  0  0  0
 10 23  1  0  0  0  0
 11 12  1  0  0  0  0
 11 21  1  0  0  0  0
 12 13  2  0  0  0  0
 12 24  1  0  0  0  0
 13 14  1  0  0  0  0
 13 25  1  0  0  0  0
 14 26  1  0  0  0  0
 16 17  1  0  0  0  0
 17 18  1  0  0  0  0
 17 27  1  0  0  0  0
 17 28  1  0  0  0  0
 18 19  1  0  0  0  0
 18 20  2  0  0  0  0
 21 22  1  0  0  0  0
 21 29  1  0  0  0  0
 22 30  1  0  0  0  0
 22 31  1  0  0  0  0
 22 35  1  0  0  0  0
 32 35  1  0  0  0  0
 33 34  1  0  0  0  0
 33 38  1  0  0  0  0
 33 39  1  0  0  0  0
 33 40  1  0  0  0  0
 34 35  1  0  0  0  0
 34 41  1  0  0  0  0
 34 42  1  0  0  0  0
 35 36  1  0  0  0  0
 36 37  1  0  0  0  0
 36 43  1  0  0  0  0
 36 44  1  0  0  0  0
 37 38  1  0  0  0  0
 37 45  1  0  0  0  0
 37 46  1  0  0  0  0
 38 47  1  0  0  0  0
 38 48  1  0  0  0  0
M  CHG  2   8  -1  19  -1
M  END
$$$$
