p38a_2z
 OpenBabel02232411163D
Structure written by MMmdl.
 45 47  0  0  0  0  0  0  0  0999 V2000
   36.3780   36.1170   15.7310 C   0  0  0  0  0  0  0  0  0  0  0  0
   34.5070   34.9420   21.1340 C   0  0  0  0  0  0  0  0  0  0  0  0
   35.7740   35.6110   16.8770 C   0  0  0  0  0  0  0  0  0  0  0  0
   33.8180   38.9280   23.7940 C   0  0  0  0  0  0  0  0  0  0  0  0
   32.6820   38.8700   26.0940 C   0  0  0  0  0  0  0  0  0  0  0  0
   34.7560   37.7940   21.4540 C   0  0  0  0  0  0  0  0  0  0  0  0
   35.3240   37.1630   20.2920 C   0  0  0  0  0  0  0  0  0  0  0  0
   37.6700   36.6370   15.8840 C   0  0  0  0  0  0  0  0  0  0  0  0
   38.3590   36.6430   17.1000 C   0  0  0  0  0  0  0  0  0  0  0  0
   37.7140   36.1650   18.2470 C   0  0  0  0  0  0  0  0  0  0  0  0
   34.1430   37.0050   22.4710 C   0  0  0  0  0  0  0  0  0  0  0  0
   34.7890   39.1990   21.6710 C   0  0  0  0  0  0  0  0  0  0  0  0
   35.2310   35.8190   20.1730 C   0  0  0  0  0  0  0  0  0  0  0  0
   36.4220   35.6470   18.1290 C   0  0  0  0  0  0  0  0  0  0  0  0
   33.3310   34.8190   23.3600 C   0  0  0  0  0  0  0  0  0  0  0  0
   34.5670   35.0640   16.8180 F   0  0  0  0  0  0  0  0  0  0  0  0
   35.7590   35.0000   19.1780 O   0  0  0  0  0  0  0  0  0  0  0  0
   34.3400   39.7770   22.7940 N   0  0  0  0  0  0  0  0  0  0  0  0
   34.3240   33.7520   20.9910 O   0  0  0  0  0  0  0  0  0  0  0  0
   34.0050   35.6170   22.2980 N   0  0  0  0  0  0  0  0  0  0  0  0
   33.6740   37.5650   23.6340 N   0  0  0  0  0  0  0  0  0  0  0  0
   33.5020   39.5130   25.0010 N   0  0  0  0  0  0  0  0  0  0  0  0
   35.8670   36.1280   14.7660 H   0  0  0  0  0  0  0  0  0  0  0  0
   31.2750   38.5320   25.5720 C   0  0  0  0  0  0  0  0  0  0  0  0
   35.8220   37.7960   19.5540 H   0  0  0  0  0  0  0  0  0  0  0  0
   39.3740   37.0420   17.1710 H   0  0  0  0  0  0  0  0  0  0  0  0
   38.2180   36.2210   19.2150 H   0  0  0  0  0  0  0  0  0  0  0  0
   35.1930   39.8640   20.8900 H   0  0  0  0  0  0  0  0  0  0  0  0
   33.9480   34.8350   24.2990 H   0  0  0  0  0  0  0  0  0  0  0  0
   32.3210   35.2560   23.5870 H   0  0  0  0  0  0  0  0  0  0  0  0
   33.2010   33.7570   23.0250 H   0  0  0  0  0  0  0  0  0  0  0  0
   33.5600   40.5550   25.0610 H   0  0  0  0  0  0  0  0  0  0  0  0
   38.2520   37.1840   14.8190 F   0  0  0  0  0  0  0  0  0  0  0  0
   33.4260   37.5950   26.6050 C   0  0  0  0  0  0  0  0  0  0  0  0
   32.5990   39.9010   27.2330 C   0  0  0  0  0  0  0  0  0  0  0  0
   32.8880   37.1690   27.8680 O   0  0  0  0  0  0  0  0  0  0  0  0
   31.9810   36.7970   27.7290 H   0  0  0  0  0  0  0  0  0  0  0  0
   33.3460   36.7530   25.8810 H   0  0  0  0  0  0  0  0  0  0  0  0
   34.4870   37.8300   26.8510 H   0  0  0  0  0  0  0  0  0  0  0  0
   32.1010   39.4420   28.1170 H   0  0  0  0  0  0  0  0  0  0  0  0
   33.6140   40.2400   27.5460 H   0  0  0  0  0  0  0  0  0  0  0  0
   32.0180   40.7880   26.9090 H   0  0  0  0  0  0  0  0  0  0  0  0
   30.6260   38.2170   26.4200 H   0  0  0  0  0  0  0  0  0  0  0  0
   30.8080   39.4250   25.0990 H   0  0  0  0  0  0  0  0  0  0  0  0
   31.3080   37.7070   24.8270 H   0  0  0  0  0  0  0  0  0  0  0  0
  1  3  2  0  0  0  0
  1  8  1  0  0  0  0
  1 23  1  0  0  0  0
  2 13  1  0  0  0  0
  2 19  2  0  0  0  0
  2 20  1  0  0  0  0
  3 14  1  0  0  0  0
  3 16  1  0  0  0  0
  4 18  2  0  0  0  0
  4 21  1  0  0  0  0
  4 22  1  0  0  0  0
  5 22  1  0  0  0  0
  5 24  1  0  0  0  0
  5 34  1  0  0  0  0
  5 35  1  0  0  0  0
  6  7  1  0  0  0  0
  6 11  1  0  0  0  0
  6 12  2  0  0  0  0
  7 13  2  0  0  0  0
  7 25  1  0  0  0  0
  8  9  2  0  0  0  0
  8 33  1  0  0  0  0
  9 10  1  0  0  0  0
  9 26  1  0  0  0  0
 10 14  2  0  0  0  0
 10 27  1  0  0  0  0
 11 20  1  0  0  0  0
 11 21  2  0  0  0  0
 12 18  1  0  0  0  0
 12 28  1  0  0  0  0
 13 17  1  0  0  0  0
 14 17  1  0  0  0  0
 15 20  1  0  0  0  0
 15 29  1  0  0  0  0
 15 30  1  0  0  0  0
 15 31  1  0  0  0  0
 22 32  1  0  0  0  0
 24 43  1  0  0  0  0
 24 44  1  0  0  0  0
 24 45  1  0  0  0  0
 34 36  1  0  0  0  0
 34 38  1  0  0  0  0
 34 39  1  0  0  0  0
 35 40  1  0  0  0  0
 35 41  1  0  0  0  0
 35 42  1  0  0  0  0
 36 37  1  0  0  0  0
M  END
$$$$
