29
 OpenBabel02232411153D
Structure written by MMmdl.
 56 59  0  0  0  0  0  0  0  0999 V2000
    1.9700   28.8310    6.7500 C   0  0  0  0  0  0  0  0  0  0  0  0
   -1.5140   31.4060    7.9380 C   0  0  0  0  0  0  0  0  0  0  0  0
    0.1270   25.9970    9.0050 C   0  0  0  0  0  0  0  0  0  0  0  0
   -0.7570   25.2490   10.0100 C   0  0  0  0  0  0  0  0  0  0  0  0
   -0.5610   23.7340    9.7800 C   0  0  0  0  0  0  0  0  0  0  0  0
   -1.3590   22.9130   10.8020 C   0  0  0  0  0  0  0  0  0  0  0  0
   -1.0070   23.3070   12.2460 C   0  0  0  0  0  0  0  0  0  0  0  0
   -1.1940   24.8150   12.4790 C   0  0  0  0  0  0  0  0  0  0  0  0
   -0.4030   25.6450   11.4570 C   0  0  0  0  0  0  0  0  0  0  0  0
    4.7410   25.3630    7.6220 C   0  0  0  0  0  0  0  0  0  0  0  0
    5.5060   24.9260    6.5310 C   0  0  0  0  0  0  0  0  0  0  0  0
    5.4830   25.6810    5.3490 C   0  0  0  0  0  0  0  0  0  0  0  0
    4.7150   26.8340    5.2560 C   0  0  0  0  0  0  0  0  0  0  0  0
    1.2970   27.8850    7.5130 N   0  0  0  0  0  0  0  0  0  0  0  0
    0.1000   28.2070    8.0720 C   0  0  0  0  0  0  0  0  0  0  0  0
   -0.5500   27.3090    8.8250 O   0  0  0  0  0  0  0  0  0  0  0  0
   -0.4520   29.5010    7.8770 C   0  0  0  0  0  0  0  0  0  0  0  0
   -1.6020   30.1400    8.3550 N   0  0  0  0  0  0  0  0  0  0  0  0
   -0.3110   31.6500    7.1840 N   0  0  0  0  0  0  0  0  0  0  0  0
    0.3610   30.4350    7.1130 C   0  0  0  0  0  0  0  0  0  0  0  0
    1.5540   30.1270    6.5050 N   0  0  0  0  0  0  0  0  0  0  0  0
    3.1620   28.4370    6.1430 N   0  0  0  0  0  0  0  0  0  0  0  0
    3.9050   27.2380    6.3430 C   0  0  0  0  0  0  0  0  0  0  0  0
    3.9300   26.4950    7.5360 C   0  0  0  0  0  0  0  0  0  0  0  0
   -2.2240   32.2050    8.1310 H   0  0  0  0  0  0  0  0  0  0  0  0
    1.1520   26.1800    9.3980 H   0  0  0  0  0  0  0  0  0  0  0  0
    0.1460   25.5110    8.0090 H   0  0  0  0  0  0  0  0  0  0  0  0
   -1.8280   25.5090    9.8260 H   0  0  0  0  0  0  0  0  0  0  0  0
   -0.8940   23.4670    8.7530 H   0  0  0  0  0  0  0  0  0  0  0  0
    0.5240   23.4820    9.8780 H   0  0  0  0  0  0  0  0  0  0  0  0
   -2.4450   23.0860   10.6360 H   0  0  0  0  0  0  0  0  0  0  0  0
   -1.1370   21.8300   10.6580 H   0  0  0  0  0  0  0  0  0  0  0  0
   -1.6600   22.7400   12.9490 H   0  0  0  0  0  0  0  0  0  0  0  0
    0.0550   23.0350   12.4470 H   0  0  0  0  0  0  0  0  0  0  0  0
   -2.2760   25.0690   12.4140 H   0  0  0  0  0  0  0  0  0  0  0  0
   -0.8330   25.0730   13.5020 H   0  0  0  0  0  0  0  0  0  0  0  0
    0.6870   25.4790   11.6320 H   0  0  0  0  0  0  0  0  0  0  0  0
   -0.6240   26.7260   11.6100 H   0  0  0  0  0  0  0  0  0  0  0  0
    4.7600   24.8240    8.5770 H   0  0  0  0  0  0  0  0  0  0  0  0
    6.0700   25.3780    4.4710 H   0  0  0  0  0  0  0  0  0  0  0  0
    4.7400   27.4230    4.3400 H   0  0  0  0  0  0  0  0  0  0  0  0
   -0.0600   32.5350    6.7190 H   0  0  0  0  0  0  0  0  0  0  0  0
    3.6150   29.1140    5.4800 H   0  0  0  0  0  0  0  0  0  0  0  0
    3.3200   26.7840    8.3930 H   0  0  0  0  0  0  0  0  0  0  0  0
    6.5390   23.5460    6.5970 S   0  0  0  0  0  0  0  0  0  0  0  0
    7.1810   23.3240    5.2920 O   0  0  0  0  0  0  0  0  0  0  0  0
    7.5020   23.7400    7.6840 O   0  0  0  0  0  0  0  0  0  0  0  0
    5.6220   22.1210    6.9330 N   0  0  0  0  0  0  0  0  0  0  0  0
    5.3630   21.2550    5.7490 C   0  0  0  0  0  0  0  0  0  0  0  0
    6.3200   21.0640    5.2000 H   0  0  0  0  0  0  0  0  0  0  0  0
    4.9660   20.2680    6.1070 H   0  0  0  0  0  0  0  0  0  0  0  0
    4.6060   21.6970    5.0500 H   0  0  0  0  0  0  0  0  0  0  0  0
    4.3870   22.2870    7.7420 C   0  0  0  0  0  0  0  0  0  0  0  0
    3.8970   21.2860    7.8860 H   0  0  0  0  0  0  0  0  0  0  0  0
    4.6490   22.6680    8.7620 H   0  0  0  0  0  0  0  0  0  0  0  0
    3.6280   22.9560    7.2590 H   0  0  0  0  0  0  0  0  0  0  0  0
  1 14  2  0  0  0  0
  1 21  1  0  0  0  0
  1 22  1  0  0  0  0
  2 18  2  0  0  0  0
  2 19  1  0  0  0  0
  2 25  1  0  0  0  0
  3  4  1  0  0  0  0
  3 16  1  0  0  0  0
  3 26  1  0  0  0  0
  3 27  1  0  0  0  0
  4  5  1  0  0  0  0
  4  9  1  0  0  0  0
  4 28  1  0  0  0  0
  5  6  1  0  0  0  0
  5 29  1  0  0  0  0
  5 30  1  0  0  0  0
  6  7  1  0  0  0  0
  6 31  1  0  0  0  0
  6 32  1  0  0  0  0
  7  8  1  0  0  0  0
  7 33  1  0  0  0  0
  7 34  1  0  0  0  0
  8  9  1  0  0  0  0
  8 35  1  0  0  0  0
  8 36  1  0  0  0  0
  9 37  1  0  0  0  0
  9 38  1  0  0  0  0
 10 11  2  0  0  0  0
 10 24  1  0  0  0  0
 10 39  1  0  0  0  0
 11 12  1  0  0  0  0
 11 45  1  0  0  0  0
 12 13  2  0  0  0  0
 12 40  1  0  0  0  0
 13 23  1  0  0  0  0
 13 41  1  0  0  0  0
 14 15  1  0  0  0  0
 15 16  1  0  0  0  0
 15 17  2  0  0  0  0
 17 18  1  0  0  0  0
 17 20  1  0  0  0  0
 19 20  1  0  0  0  0
 19 42  1  0  0  0  0
 20 21  2  0  0  0  0
 22 23  1  0  0  0  0
 22 43  1  0  0  0  0
 23 24  2  0  0  0  0
 24 44  1  0  0  0  0
 45 46  2  0  0  0  0
 45 47  2  0  0  0  0
 45 48  1  0  0  0  0
 48 49  1  0  0  0  0
 48 53  1  0  0  0  0
 49 50  1  0  0  0  0
 49 51  1  0  0  0  0
 49 52  1  0  0  0  0
 53 54  1  0  0  0  0
 53 55  1  0  0  0  0
 53 56  1  0  0  0  0
M  END
$$$$
