22
 OpenBabel02232411153D
Structure written by MMmdl.
 49 52  0  0  0  0  0  0  0  0999 V2000
    1.7920   28.8760    6.8570 C   0  0  0  0  0  0  0  0  0  0  0  0
   -1.6640   31.5040    8.0180 C   0  0  0  0  0  0  0  0  0  0  0  0
   -0.2320   25.9970    8.9030 C   0  0  0  0  0  0  0  0  0  0  0  0
   -0.9700   25.2970   10.0510 C   0  0  0  0  0  0  0  0  0  0  0  0
   -0.7710   23.7750    9.8570 C   0  0  0  0  0  0  0  0  0  0  0  0
   -1.3550   22.9780   11.0310 C   0  0  0  0  0  0  0  0  0  0  0  0
   -0.7890   23.4580   12.3770 C   0  0  0  0  0  0  0  0  0  0  0  0
   -1.0320   24.9620   12.5730 C   0  0  0  0  0  0  0  0  0  0  0  0
   -0.4350   25.7740   11.4150 C   0  0  0  0  0  0  0  0  0  0  0  0
    4.3150   25.4180    8.1220 C   0  0  0  0  0  0  0  0  0  0  0  0
    5.1240   24.8730    7.1210 C   0  0  0  0  0  0  0  0  0  0  0  0
    5.2200   25.5390    5.8970 C   0  0  0  0  0  0  0  0  0  0  0  0
    4.5410   26.7270    5.6540 C   0  0  0  0  0  0  0  0  0  0  0  0
    1.0580   27.9240    7.5610 N   0  0  0  0  0  0  0  0  0  0  0  0
   -0.1330   28.2630    8.1140 C   0  0  0  0  0  0  0  0  0  0  0  0
   -0.8230   27.3590    8.8270 O   0  0  0  0  0  0  0  0  0  0  0  0
   -0.6400   29.5800    7.9530 C   0  0  0  0  0  0  0  0  0  0  0  0
   -1.7770   30.2390    8.4300 N   0  0  0  0  0  0  0  0  0  0  0  0
   -0.4540   31.7270    7.2690 N   0  0  0  0  0  0  0  0  0  0  0  0
    0.1990   30.5000    7.2010 C   0  0  0  0  0  0  0  0  0  0  0  0
    1.3950   30.1800    6.6070 N   0  0  0  0  0  0  0  0  0  0  0  0
    3.0300   28.4820    6.3700 N   0  0  0  0  0  0  0  0  0  0  0  0
    3.7040   27.2500    6.6650 C   0  0  0  0  0  0  0  0  0  0  0  0
    3.6060   26.6010    7.9070 C   0  0  0  0  0  0  0  0  0  0  0  0
   -2.3560   32.3160    8.2170 H   0  0  0  0  0  0  0  0  0  0  0  0
    0.8580   26.0770    9.1120 H   0  0  0  0  0  0  0  0  0  0  0  0
   -0.4350   25.5320    7.9170 H   0  0  0  0  0  0  0  0  0  0  0  0
   -2.0620   25.5290   10.0040 H   0  0  0  0  0  0  0  0  0  0  0  0
   -1.2720   23.4550    8.9170 H   0  0  0  0  0  0  0  0  0  0  0  0
    0.3220   23.5510    9.7800 H   0  0  0  0  0  0  0  0  0  0  0  0
   -2.4590   23.1030   11.0440 H   0  0  0  0  0  0  0  0  0  0  0  0
   -1.1180   21.8970   10.9000 H   0  0  0  0  0  0  0  0  0  0  0  0
   -1.2730   22.8910   13.2050 H   0  0  0  0  0  0  0  0  0  0  0  0
    0.3080   23.2600   12.3990 H   0  0  0  0  0  0  0  0  0  0  0  0
   -2.1270   25.1570   12.6530 H   0  0  0  0  0  0  0  0  0  0  0  0
   -0.5520   25.2870   13.5250 H   0  0  0  0  0  0  0  0  0  0  0  0
    0.6770   25.6630   11.4450 H   0  0  0  0  0  0  0  0  0  0  0  0
   -0.6850   26.8510   11.5550 H   0  0  0  0  0  0  0  0  0  0  0  0
    4.2180   24.9040    9.0820 H   0  0  0  0  0  0  0  0  0  0  0  0
    5.6510   23.9350    7.2950 H   0  0  0  0  0  0  0  0  0  0  0  0
    4.6480   27.2590    4.7060 H   0  0  0  0  0  0  0  0  0  0  0  0
   -0.1820   32.6030    6.8000 H   0  0  0  0  0  0  0  0  0  0  0  0
    3.5550   29.1240    5.7330 H   0  0  0  0  0  0  0  0  0  0  0  0
    2.9760   26.9940    8.7050 H   0  0  0  0  0  0  0  0  0  0  0  0
    6.2740   24.8100    4.6820 S   0  0  0  0  0  0  0  0  0  0  0  0
    5.2500   24.7970    3.1900 C   0  0  0  0  0  0  0  0  0  0  0  0
    5.6500   23.9920    2.5240 H   0  0  0  0  0  0  0  0  0  0  0  0
    4.1860   24.5700    3.4220 H   0  0  0  0  0  0  0  0  0  0  0  0
    5.3160   25.7720    2.6590 H   0  0  0  0  0  0  0  0  0  0  0  0
  1 14  2  0  0  0  0
  1 21  1  0  0  0  0
  1 22  1  0  0  0  0
  2 18  2  0  0  0  0
  2 19  1  0  0  0  0
  2 25  1  0  0  0  0
  3  4  1  0  0  0  0
  3 16  1  0  0  0  0
  3 26  1  0  0  0  0
  3 27  1  0  0  0  0
  4  5  1  0  0  0  0
  4  9  1  0  0  0  0
  4 28  1  0  0  0  0
  5  6  1  0  0  0  0
  5 29  1  0  0  0  0
  5 30  1  0  0  0  0
  6  7  1  0  0  0  0
  6 31  1  0  0  0  0
  6 32  1  0  0  0  0
  7  8  1  0  0  0  0
  7 33  1  0  0  0  0
  7 34  1  0  0  0  0
  8  9  1  0  0  0  0
  8 35  1  0  0  0  0
  8 36  1  0  0  0  0
  9 37  1  0  0  0  0
  9 38  1  0  0  0  0
 10 11  2  0  0  0  0
 10 24  1  0  0  0  0
 10 39  1  0  0  0  0
 11 12  1  0  0  0  0
 11 40  1  0  0  0  0
 12 13  2  0  0  0  0
 12 45  1  0  0  0  0
 13 23  1  0  0  0  0
 13 41  1  0  0  0  0
 14 15  1  0  0  0  0
 15 16  1  0  0  0  0
 15 17  2  0  0  0  0
 17 18  1  0  0  0  0
 17 20  1  0  0  0  0
 19 20  1  0  0  0  0
 19 42  1  0  0  0  0
 20 21  2  0  0  0  0
 22 23  1  0  0  0  0
 22 43  1  0  0  0  0
 23 24  2  0  0  0  0
 24 44  1  0  0  0  0
 45 46  1  0  0  0  0
 46 47  1  0  0  0  0
 46 48  1  0  0  0  0
 46 49  1  0  0  0  0
M  END
$$$$
