p38a_2m
 OpenBabel02232411163D
Structure written by MMmdl.
 50 54  0  0  0  0  0  0  0  0999 V2000
   36.3810   36.0980   15.7190 C   0  0  0  0  0  0  0  0  0  0  0  0
   34.6510   34.9470   21.2270 C   0  0  0  0  0  0  0  0  0  0  0  0
   35.7680   35.5960   16.8630 C   0  0  0  0  0  0  0  0  0  0  0  0
   34.0480   38.9620   23.8650 C   0  0  0  0  0  0  0  0  0  0  0  0
   34.8470   37.8110   21.4850 C   0  0  0  0  0  0  0  0  0  0  0  0
   35.3310   37.1770   20.2870 C   0  0  0  0  0  0  0  0  0  0  0  0
   37.6680   36.6270   15.8820 C   0  0  0  0  0  0  0  0  0  0  0  0
   38.3450   36.6430   17.1040 C   0  0  0  0  0  0  0  0  0  0  0  0
   37.6920   36.1690   18.2480 C   0  0  0  0  0  0  0  0  0  0  0  0
   34.4020   37.0170   22.5830 C   0  0  0  0  0  0  0  0  0  0  0  0
   34.8100   39.2200   21.6610 C   0  0  0  0  0  0  0  0  0  0  0  0
   35.2690   35.8290   20.1960 C   0  0  0  0  0  0  0  0  0  0  0  0
   36.4030   35.6460   18.1210 C   0  0  0  0  0  0  0  0  0  0  0  0
   34.5650   35.0420   16.7960 F   0  0  0  0  0  0  0  0  0  0  0  0
   35.7200   35.0090   19.1650 O   0  0  0  0  0  0  0  0  0  0  0  0
   34.4300   39.8090   22.8060 N   0  0  0  0  0  0  0  0  0  0  0  0
   34.4010   33.7730   21.0810 O   0  0  0  0  0  0  0  0  0  0  0  0
   34.3460   35.6130   22.4670 N   0  0  0  0  0  0  0  0  0  0  0  0
   34.0050   37.5810   23.7650 N   0  0  0  0  0  0  0  0  0  0  0  0
   33.6610   39.5400   25.0500 N   0  0  0  0  0  0  0  0  0  0  0  0
   35.8780   36.1000   14.7500 H   0  0  0  0  0  0  0  0  0  0  0  0
   35.7450   37.8110   19.5000 H   0  0  0  0  0  0  0  0  0  0  0  0
   39.3580   37.0450   17.1810 H   0  0  0  0  0  0  0  0  0  0  0  0
   38.1880   36.2340   19.2190 H   0  0  0  0  0  0  0  0  0  0  0  0
   35.1020   39.8840   20.8300 H   0  0  0  0  0  0  0  0  0  0  0  0
   33.7340   40.5670   25.1720 H   0  0  0  0  0  0  0  0  0  0  0  0
   38.2560   37.1720   14.8200 F   0  0  0  0  0  0  0  0  0  0  0  0
   33.2530   40.4780   28.1350 C   0  0  0  0  0  0  0  0  0  0  0  0
   32.4410   39.5620   27.2120 C   0  0  0  0  0  0  0  0  0  0  0  0
   33.3070   38.7190   26.2530 C   0  0  0  0  0  0  0  0  0  0  0  0
   34.5630   38.1610   26.9570 C   0  0  0  0  0  0  0  0  0  0  0  0
   35.2670   39.2100   27.8190 C   0  0  0  0  0  0  0  0  0  0  0  0
   34.3500   39.7930   28.7750 O   0  0  0  0  0  0  0  0  0  0  0  0
   32.6400   40.8150   29.0030 H   0  0  0  0  0  0  0  0  0  0  0  0
   33.6640   41.3450   27.5720 H   0  0  0  0  0  0  0  0  0  0  0  0
   31.7280   40.1890   26.6210 H   0  0  0  0  0  0  0  0  0  0  0  0
   31.8380   38.8500   27.8300 H   0  0  0  0  0  0  0  0  0  0  0  0
   32.6860   37.8450   25.8950 H   0  0  0  0  0  0  0  0  0  0  0  0
   34.2360   37.3030   27.5980 H   0  0  0  0  0  0  0  0  0  0  0  0
   35.2800   37.7580   26.2020 H   0  0  0  0  0  0  0  0  0  0  0  0
   36.0330   38.7470   28.4820 H   0  0  0  0  0  0  0  0  0  0  0  0
   35.6970   40.0230   27.1920 H   0  0  0  0  0  0  0  0  0  0  0  0
   33.9550   34.8210   23.6530 C   0  0  0  0  0  0  0  0  0  0  0  0
   34.8480   34.8570   24.8910 C   0  0  0  0  0  0  0  0  0  0  0  0
   34.7640   33.5950   24.0570 C   0  0  0  0  0  0  0  0  0  0  0  0
   32.8580   34.8150   23.7960 H   0  0  0  0  0  0  0  0  0  0  0  0
   35.7720   35.4440   24.8800 H   0  0  0  0  0  0  0  0  0  0  0  0
   34.3550   34.8900   25.8740 H   0  0  0  0  0  0  0  0  0  0  0  0
   35.6450   33.2820   23.4890 H   0  0  0  0  0  0  0  0  0  0  0  0
   34.2070   32.7360   24.4630 H   0  0  0  0  0  0  0  0  0  0  0  0
  1  3  2  0  0  0  0
  1  7  1  0  0  0  0
  1 21  1  0  0  0  0
  2 12  1  0  0  0  0
  2 17  2  0  0  0  0
  2 18  1  0  0  0  0
  3 13  1  0  0  0  0
  3 14  1  0  0  0  0
  4 16  2  0  0  0  0
  4 19  1  0  0  0  0
  4 20  1  0  0  0  0
  5  6  1  0  0  0  0
  5 10  1  0  0  0  0
  5 11  2  0  0  0  0
  6 12  2  0  0  0  0
  6 22  1  0  0  0  0
  7  8  2  0  0  0  0
  7 27  1  0  0  0  0
  8  9  1  0  0  0  0
  8 23  1  0  0  0  0
  9 13  2  0  0  0  0
  9 24  1  0  0  0  0
 10 18  1  0  0  0  0
 10 19  2  0  0  0  0
 11 16  1  0  0  0  0
 11 25  1  0  0  0  0
 12 15  1  0  0  0  0
 13 15  1  0  0  0  0
 18 43  1  0  0  0  0
 20 26  1  0  0  0  0
 20 30  1  0  0  0  0
 28 29  1  0  0  0  0
 28 33  1  0  0  0  0
 28 34  1  0  0  0  0
 28 35  1  0  0  0  0
 29 30  1  0  0  0  0
 29 36  1  0  0  0  0
 29 37  1  0  0  0  0
 30 31  1  0  0  0  0
 30 38  1  0  0  0  0
 31 32  1  0  0  0  0
 31 39  1  0  0  0  0
 31 40  1  0  0  0  0
 32 33  1  0  0  0  0
 32 41  1  0  0  0  0
 32 42  1  0  0  0  0
 43 44  1  0  0  0  0
 43 45  1  0  0  0  0
 43 46  1  0  0  0  0
 44 45  1  0  0  0  0
 44 47  1  0  0  0  0
 44 48  1  0  0  0  0
 45 49  1  0  0  0  0
 45 50  1  0  0  0  0
M  END
$$$$
