p38a_2aa
 OpenBabel02232411163D
Structure written by MMmdl.
 43 45  0  0  0  0  0  0  0  0999 V2000
   36.3430   36.0250   15.8610 C   0  0  0  0  0  0  0  0  0  0  0  0
   34.6030   35.0730   21.4450 C   0  0  0  0  0  0  0  0  0  0  0  0
   35.6800   35.5770   17.0000 C   0  0  0  0  0  0  0  0  0  0  0  0
   34.0380   39.1890   23.9080 C   0  0  0  0  0  0  0  0  0  0  0  0
   33.6720   39.1790   26.3900 C   0  0  0  0  0  0  0  0  0  0  0  0
   34.7580   37.9440   21.5590 C   0  0  0  0  0  0  0  0  0  0  0  0
   35.1950   37.2620   20.3680 C   0  0  0  0  0  0  0  0  0  0  0  0
   37.6410   36.5180   16.0470 C   0  0  0  0  0  0  0  0  0  0  0  0
   38.2850   36.5410   17.2870 C   0  0  0  0  0  0  0  0  0  0  0  0
   37.5850   36.1190   18.4230 C   0  0  0  0  0  0  0  0  0  0  0  0
   34.3900   37.1940   22.7150 C   0  0  0  0  0  0  0  0  0  0  0  0
   34.6860   39.3580   21.6620 C   0  0  0  0  0  0  0  0  0  0  0  0
   35.1520   35.9110   20.3420 C   0  0  0  0  0  0  0  0  0  0  0  0
   36.2810   35.6390   18.2740 C   0  0  0  0  0  0  0  0  0  0  0  0
   33.9550   35.0370   23.8870 C   0  0  0  0  0  0  0  0  0  0  0  0
   34.4600   35.0640   16.9110 F   0  0  0  0  0  0  0  0  0  0  0  0
   35.5460   35.0570   19.3160 O   0  0  0  0  0  0  0  0  0  0  0  0
   34.3380   39.9920   22.7950 N   0  0  0  0  0  0  0  0  0  0  0  0
   34.3750   33.8860   21.3770 O   0  0  0  0  0  0  0  0  0  0  0  0
   34.3360   35.7930   22.6610 N   0  0  0  0  0  0  0  0  0  0  0  0
   34.0580   37.8130   23.8980 N   0  0  0  0  0  0  0  0  0  0  0  0
   33.6000   39.8410   25.0540 N   0  0  0  0  0  0  0  0  0  0  0  0
   35.8690   36.0150   14.8760 H   0  0  0  0  0  0  0  0  0  0  0  0
   33.8700   40.2360   27.5080 C   0  0  0  0  0  0  0  0  0  0  0  0
   35.5600   37.8660   19.5340 H   0  0  0  0  0  0  0  0  0  0  0  0
   39.3100   36.9110   17.3790 H   0  0  0  0  0  0  0  0  0  0  0  0
   38.0530   36.1890   19.4070 H   0  0  0  0  0  0  0  0  0  0  0  0
   34.9180   39.9850   20.7850 H   0  0  0  0  0  0  0  0  0  0  0  0
   34.6360   35.3190   24.7370 H   0  0  0  0  0  0  0  0  0  0  0  0
   32.9010   35.2860   24.1850 H   0  0  0  0  0  0  0  0  0  0  0  0
   34.0370   33.9340   23.7070 H   0  0  0  0  0  0  0  0  0  0  0  0
   33.6800   40.8760   25.0750 H   0  0  0  0  0  0  0  0  0  0  0  0
   38.2750   37.0210   14.9910 F   0  0  0  0  0  0  0  0  0  0  0  0
   32.3610   38.3930   26.6570 C   0  0  0  0  0  0  0  0  0  0  0  0
   31.2210   39.2590   26.7130 O   0  0  0  0  0  0  0  0  0  0  0  0
   31.1230   39.7350   25.8570 H   0  0  0  0  0  0  0  0  0  0  0  0
   32.1980   37.6170   25.8730 H   0  0  0  0  0  0  0  0  0  0  0  0
   32.3870   37.9340   27.6750 H   0  0  0  0  0  0  0  0  0  0  0  0
   34.9730   41.1120   27.2300 O   0  0  0  0  0  0  0  0  0  0  0  0
   32.9470   40.8460   27.6430 H   0  0  0  0  0  0  0  0  0  0  0  0
   34.1680   39.7250   28.4550 H   0  0  0  0  0  0  0  0  0  0  0  0
   34.6360   41.8140   26.5850 H   0  0  0  0  0  0  0  0  0  0  0  0
   34.5270   38.4440   26.4190 H   0  0  0  0  0  0  0  0  0  0  0  0
  1  3  2  0  0  0  0
  1  8  1  0  0  0  0
  1 23  1  0  0  0  0
  2 13  1  0  0  0  0
  2 19  2  0  0  0  0
  2 20  1  0  0  0  0
  3 14  1  0  0  0  0
  3 16  1  0  0  0  0
  4 18  2  0  0  0  0
  4 21  1  0  0  0  0
  4 22  1  0  0  0  0
  5 22  1  0  0  0  0
  5 24  1  0  0  0  0
  5 34  1  0  0  0  0
  5 43  1  0  0  0  0
  6  7  1  0  0  0  0
  6 11  1  0  0  0  0
  6 12  2  0  0  0  0
  7 13  2  0  0  0  0
  7 25  1  0  0  0  0
  8  9  2  0  0  0  0
  8 33  1  0  0  0  0
  9 10  1  0  0  0  0
  9 26  1  0  0  0  0
 10 14  2  0  0  0  0
 10 27  1  0  0  0  0
 11 20  1  0  0  0  0
 11 21  2  0  0  0  0
 12 18  1  0  0  0  0
 12 28  1  0  0  0  0
 13 17  1  0  0  0  0
 14 17  1  0  0  0  0
 15 20  1  0  0  0  0
 15 29  1  0  0  0  0
 15 30  1  0  0  0  0
 15 31  1  0  0  0  0
 22 32  1  0  0  0  0
 24 39  1  0  0  0  0
 24 40  1  0  0  0  0
 24 41  1  0  0  0  0
 34 35  1  0  0  0  0
 34 37  1  0  0  0  0
 34 38  1  0  0  0  0
 35 36  1  0  0  0  0
 39 42  1  0  0  0  0
M  END
$$$$
