18628-1
 OpenBabel02232411163D
Structure written by MMmdl.
 41 42  0  0  0  0  0  0  0  0999 V2000
   24.4510   10.9720   30.7950 C   0  0  0  0  0  0  0  0  0  0  0  0
   23.1110   11.2380   30.1440 C   0  0  0  0  0  0  0  0  0  0  0  0
   22.0360   11.2740   31.1580 O   0  0  0  0  0  0  0  0  0  0  0  0
   21.4620   10.1170   31.5580 C   0  0  0  0  0  0  0  0  0  0  0  0
   21.9490    8.9330   31.1210 N   0  0  0  0  0  0  0  0  0  0  0  0
   21.2630    7.7820   31.4810 C   0  0  0  0  0  0  0  0  0  0  0  0
   20.1280    7.8020   32.2840 C   0  0  0  0  0  0  0  0  0  0  0  0
   19.6280    9.0500   32.7460 C   0  0  0  0  0  0  0  0  0  0  0  0
   18.4850    9.0840   33.5040 N   0  0  0  0  0  0  0  0  0  0  0  0
   20.3100   10.2560   32.3900 C   0  0  0  0  0  0  0  0  0  0  0  0
   19.8910   11.5500   32.7650 C   0  0  0  0  0  0  0  0  0  0  0  0
   19.5990   12.6400   33.0320 N   0  0  0  0  0  0  0  0  0  0  0  0
   21.8570    6.6310   30.9100 N   0  0  0  0  0  0  0  0  0  0  0  0
   21.3210    5.3190   30.8560 C   0  0  0  0  0  0  0  0  0  0  0  0
   20.2950    5.0110   31.4220 O   0  0  0  0  0  0  0  0  0  0  0  0
   22.1300    4.3760   29.9750 C   0  0  0  0  0  0  0  0  0  0  0  0
   23.4120    3.9510   30.6410 C   0  0  0  0  0  0  0  0  0  0  0  0
   24.6520    4.5840   30.4190 C   0  0  0  0  0  0  0  0  0  0  0  0
   24.8770    5.6980   29.4450 C   0  0  0  0  0  0  0  0  0  0  0  0
   25.7780    4.1470   31.1470 C   0  0  0  0  0  0  0  0  0  0  0  0
   25.6910    3.0940   32.0530 C   0  0  0  0  0  0  0  0  0  0  0  0
   24.4700    2.4370   32.2360 C   0  0  0  0  0  0  0  0  0  0  0  0
   23.3460    2.8610   31.5300 C   0  0  0  0  0  0  0  0  0  0  0  0
   25.2410   10.9300   30.0040 H   0  0  0  0  0  0  0  0  0  0  0  0
   24.4540    9.9910   31.3260 H   0  0  0  0  0  0  0  0  0  0  0  0
   24.7140   11.7770   31.5150 H   0  0  0  0  0  0  0  0  0  0  0  0
   23.0280   12.2820   29.7550 H   0  0  0  0  0  0  0  0  0  0  0  0
   22.8640   10.4850   29.3620 H   0  0  0  0  0  0  0  0  0  0  0  0
   19.6050    6.8810   32.5490 H   0  0  0  0  0  0  0  0  0  0  0  0
   18.0770    9.9680   33.8090 H   0  0  0  0  0  0  0  0  0  0  0  0
   17.9960    8.2110   33.7780 H   0  0  0  0  0  0  0  0  0  0  0  0
   22.7540    6.8160   30.4220 H   0  0  0  0  0  0  0  0  0  0  0  0
   22.3270    4.8690   28.9910 H   0  0  0  0  0  0  0  0  0  0  0  0
   21.5020    3.4680   29.7690 H   0  0  0  0  0  0  0  0  0  0  0  0
   25.0720    6.6550   29.9960 H   0  0  0  0  0  0  0  0  0  0  0  0
   25.7950    5.4850   28.8350 H   0  0  0  0  0  0  0  0  0  0  0  0
   24.0440    5.8570   28.7330 H   0  0  0  0  0  0  0  0  0  0  0  0
   26.7410    4.6450   30.9940 H   0  0  0  0  0  0  0  0  0  0  0  0
   26.5770    2.7750   32.6110 H   0  0  0  0  0  0  0  0  0  0  0  0
   24.4010    1.5920   32.9280 H   0  0  0  0  0  0  0  0  0  0  0  0
   22.4040    2.3260   31.6710 H   0  0  0  0  0  0  0  0  0  0  0  0
  1  2  1  0  0  0  0
  1 24  1  0  0  0  0
  1 25  1  0  0  0  0
  1 26  1  0  0  0  0
  2  3  1  0  0  0  0
  2 27  1  0  0  0  0
  2 28  1  0  0  0  0
  3  4  1  0  0  0  0
  4 10  2  0  0  0  0
  4  5  1  0  0  0  0
  5  6  2  0  0  0  0
  6  7  1  0  0  0  0
  6 13  1  0  0  0  0
  7  8  2  0  0  0  0
  7 29  1  0  0  0  0
  8  9  1  0  0  0  0
  8 10  1  0  0  0  0
  9 30  1  0  0  0  0
  9 31  1  0  0  0  0
 10 11  1  0  0  0  0
 11 12  3  0  0  0  0
 13 14  1  0  0  0  0
 13 32  1  0  0  0  0
 14 15  2  0  0  0  0
 14 16  1  0  0  0  0
 16 17  1  0  0  0  0
 16 33  1  0  0  0  0
 16 34  1  0  0  0  0
 17 23  2  0  0  0  0
 17 18  1  0  0  0  0
 18 19  1  0  0  0  0
 18 20  2  0  0  0  0
 19 35  1  0  0  0  0
 19 36  1  0  0  0  0
 19 37  1  0  0  0  0
 20 21  1  0  0  0  0
 20 38  1  0  0  0  0
 21 22  2  0  0  0  0
 21 39  1  0  0  0  0
 22 23  1  0  0  0  0
 22 40  1  0  0  0  0
 23 41  1  0  0  0  0
M  END
$$$$
