p38a_2e
 OpenBabel02232411163D
Structure written by MMmdl.
 46 49  0  0  0  0  0  0  0  0999 V2000
   31.8010   39.0870   26.2580 C   0  0  0  0  0  0  0  0  0  0  0  0
   31.3160   38.4540   27.5680 C   0  0  0  0  0  0  0  0  0  0  0  0
   33.3850   38.9890   28.6970 C   0  0  0  0  0  0  0  0  0  0  0  0
   33.9640   39.6550   27.4420 C   0  0  0  0  0  0  0  0  0  0  0  0
   38.2860   36.4890   17.2010 C   0  0  0  0  0  0  0  0  0  0  0  0
   31.9430   39.0600   28.7220 O   0  0  0  0  0  0  0  0  0  0  0  0
   34.5130   35.0450   21.2110 C   0  0  0  0  0  0  0  0  0  0  0  0
   37.5180   36.0290   18.2720 C   0  0  0  0  0  0  0  0  0  0  0  0
   34.0420   39.1270   23.7690 C   0  0  0  0  0  0  0  0  0  0  0  0
   33.3420   39.0100   26.1850 C   0  0  0  0  0  0  0  0  0  0  0  0
   34.6930   37.9190   21.3770 C   0  0  0  0  0  0  0  0  0  0  0  0
   35.1020   37.2540   20.1710 C   0  0  0  0  0  0  0  0  0  0  0  0
   37.6650   36.6310   15.9540 C   0  0  0  0  0  0  0  0  0  0  0  0
   36.3270   36.2990   15.7200 C   0  0  0  0  0  0  0  0  0  0  0  0
   35.5630   35.8230   16.7880 C   0  0  0  0  0  0  0  0  0  0  0  0
   34.2750   37.1540   22.5070 C   0  0  0  0  0  0  0  0  0  0  0  0
   34.6870   39.3320   21.5230 C   0  0  0  0  0  0  0  0  0  0  0  0
   35.0440   35.9020   20.1170 C   0  0  0  0  0  0  0  0  0  0  0  0
   36.1750   35.6970   18.0410 C   0  0  0  0  0  0  0  0  0  0  0  0
   33.7360   34.9850   23.6130 C   0  0  0  0  0  0  0  0  0  0  0  0
   37.9520   35.9640   19.2710 H   0  0  0  0  0  0  0  0  0  0  0  0
   38.3680   37.1520   14.9490 F   0  0  0  0  0  0  0  0  0  0  0  0
   35.4070   35.0850   19.0530 O   0  0  0  0  0  0  0  0  0  0  0  0
   34.3730   39.9490   22.6720 N   0  0  0  0  0  0  0  0  0  0  0  0
   34.3460   33.8460   21.1490 O   0  0  0  0  0  0  0  0  0  0  0  0
   34.1870   35.7540   22.4190 N   0  0  0  0  0  0  0  0  0  0  0  0
   33.9440   37.7500   23.6970 N   0  0  0  0  0  0  0  0  0  0  0  0
   33.8530   39.7390   24.9850 N   0  0  0  0  0  0  0  0  0  0  0  0
   31.3480   38.5380   25.3990 H   0  0  0  0  0  0  0  0  0  0  0  0
   31.4810   40.1530   26.2060 H   0  0  0  0  0  0  0  0  0  0  0  0
   30.2390   38.6670   27.7520 H   0  0  0  0  0  0  0  0  0  0  0  0
   31.5180   37.3580   27.5810 H   0  0  0  0  0  0  0  0  0  0  0  0
   33.6970   37.9200   28.7590 H   0  0  0  0  0  0  0  0  0  0  0  0
   33.6700   39.5490   29.6180 H   0  0  0  0  0  0  0  0  0  0  0  0
   33.7450   40.7500   27.4590 H   0  0  0  0  0  0  0  0  0  0  0  0
   35.0740   39.5250   27.4300 H   0  0  0  0  0  0  0  0  0  0  0  0
   39.3320   36.7690   17.3480 H   0  0  0  0  0  0  0  0  0  0  0  0
   33.6640   37.9320   26.1230 H   0  0  0  0  0  0  0  0  0  0  0  0
   35.4590   37.8660   19.3400 H   0  0  0  0  0  0  0  0  0  0  0  0
   35.8720   36.4270   14.7360 H   0  0  0  0  0  0  0  0  0  0  0  0
   34.5060   35.5830   16.6440 H   0  0  0  0  0  0  0  0  0  0  0  0
   34.9420   39.9720   20.6620 H   0  0  0  0  0  0  0  0  0  0  0  0
   34.3970   35.2190   24.4930 H   0  0  0  0  0  0  0  0  0  0  0  0
   32.6830   35.2710   23.8780 H   0  0  0  0  0  0  0  0  0  0  0  0
   33.7800   33.8850   23.4070 H   0  0  0  0  0  0  0  0  0  0  0  0
   33.8100   40.7760   25.0400 H   0  0  0  0  0  0  0  0  0  0  0  0
  1  2  1  0  0  0  0
  1 10  1  0  0  0  0
  1 29  1  0  0  0  0
  1 30  1  0  0  0  0
  2  6  1  0  0  0  0
  2 31  1  0  0  0  0
  2 32  1  0  0  0  0
  3  4  1  0  0  0  0
  3  6  1  0  0  0  0
  3 33  1  0  0  0  0
  3 34  1  0  0  0  0
  4 10  1  0  0  0  0
  4 35  1  0  0  0  0
  4 36  1  0  0  0  0
  5  8  2  0  0  0  0
  5 13  1  0  0  0  0
  5 37  1  0  0  0  0
  7 18  1  0  0  0  0
  7 25  2  0  0  0  0
  7 26  1  0  0  0  0
  8 19  1  0  0  0  0
  8 21  1  0  0  0  0
  9 24  2  0  0  0  0
  9 27  1  0  0  0  0
  9 28  1  0  0  0  0
 10 28  1  0  0  0  0
 10 38  1  0  0  0  0
 11 12  1  0  0  0  0
 11 16  1  0  0  0  0
 11 17  2  0  0  0  0
 12 18  2  0  0  0  0
 12 39  1  0  0  0  0
 13 14  2  0  0  0  0
 13 22  1  0  0  0  0
 14 15  1  0  0  0  0
 14 40  1  0  0  0  0
 15 19  2  0  0  0  0
 15 41  1  0  0  0  0
 16 26  1  0  0  0  0
 16 27  2  0  0  0  0
 17 24  1  0  0  0  0
 17 42  1  0  0  0  0
 18 23  1  0  0  0  0
 19 23  1  0  0  0  0
 20 26  1  0  0  0  0
 20 43  1  0  0  0  0
 20 44  1  0  0  0  0
 20 45  1  0  0  0  0
 28 46  1  0  0  0  0
M  END
$$$$
