32
 OpenBabel02232411153D
Structure written by MMmdl.
 54 57  0  0  0  0  0  0  0  0999 V2000
    1.7370   28.9340    6.7910 C   0  0  0  0  0  0  0  0  0  0  0  0
   -1.6880   31.5590    8.0270 C   0  0  0  0  0  0  0  0  0  0  0  0
   -0.2210   26.0550    8.8820 C   0  0  0  0  0  0  0  0  0  0  0  0
   -0.9550   25.3400   10.0230 C   0  0  0  0  0  0  0  0  0  0  0  0
   -0.7490   23.8210    9.8140 C   0  0  0  0  0  0  0  0  0  0  0  0
   -1.3390   23.0090   10.9750 C   0  0  0  0  0  0  0  0  0  0  0  0
   -0.7820   23.4760   12.3290 C   0  0  0  0  0  0  0  0  0  0  0  0
   -1.0270   24.9790   12.5400 C   0  0  0  0  0  0  0  0  0  0  0  0
   -0.4230   25.8020   11.3930 C   0  0  0  0  0  0  0  0  0  0  0  0
    4.1750   25.4510    8.0040 C   0  0  0  0  0  0  0  0  0  0  0  0
    5.0000   24.8710    7.0230 C   0  0  0  0  0  0  0  0  0  0  0  0
    5.1630   25.5780    5.8120 C   0  0  0  0  0  0  0  0  0  0  0  0
    4.5090   26.7960    5.5730 C   0  0  0  0  0  0  0  0  0  0  0  0
    1.0090   27.9750    7.4860 N   0  0  0  0  0  0  0  0  0  0  0  0
   -0.1650   28.3140    8.0780 C   0  0  0  0  0  0  0  0  0  0  0  0
   -0.8340   27.4080    8.8060 O   0  0  0  0  0  0  0  0  0  0  0  0
   -0.6680   29.6340    7.9380 C   0  0  0  0  0  0  0  0  0  0  0  0
   -1.8010   30.2910    8.4300 N   0  0  0  0  0  0  0  0  0  0  0  0
   -0.4830   31.7860    7.2730 N   0  0  0  0  0  0  0  0  0  0  0  0
    0.1670   30.5600    7.1900 C   0  0  0  0  0  0  0  0  0  0  0  0
    1.3600   30.2430    6.5800 N   0  0  0  0  0  0  0  0  0  0  0  0
    2.9550   28.5160    6.2420 N   0  0  0  0  0  0  0  0  0  0  0  0
    3.6450   27.3100    6.5530 C   0  0  0  0  0  0  0  0  0  0  0  0
    3.5170   26.6510    7.7960 C   0  0  0  0  0  0  0  0  0  0  0  0
   -2.3800   32.3690    8.2380 H   0  0  0  0  0  0  0  0  0  0  0  0
    0.8660   26.1580    9.1010 H   0  0  0  0  0  0  0  0  0  0  0  0
   -0.4040   25.5890    7.8930 H   0  0  0  0  0  0  0  0  0  0  0  0
   -2.0470   25.5690    9.9780 H   0  0  0  0  0  0  0  0  0  0  0  0
   -1.2390   23.5090    8.8660 H   0  0  0  0  0  0  0  0  0  0  0  0
    0.3450   23.6030    9.7440 H   0  0  0  0  0  0  0  0  0  0  0  0
   -2.4440   23.1310   10.9820 H   0  0  0  0  0  0  0  0  0  0  0  0
   -1.0950   21.9310   10.8330 H   0  0  0  0  0  0  0  0  0  0  0  0
   -1.2700   22.9020   13.1490 H   0  0  0  0  0  0  0  0  0  0  0  0
    0.3160   23.2810   12.3550 H   0  0  0  0  0  0  0  0  0  0  0  0
   -2.1220   25.1720   12.6110 H   0  0  0  0  0  0  0  0  0  0  0  0
   -0.5540   25.2960   13.4970 H   0  0  0  0  0  0  0  0  0  0  0  0
    0.6880   25.6860   11.4260 H   0  0  0  0  0  0  0  0  0  0  0  0
   -0.6680   26.8780   11.5410 H   0  0  0  0  0  0  0  0  0  0  0  0
    4.0230   24.9500    8.9670 H   0  0  0  0  0  0  0  0  0  0  0  0
    4.6490   27.3500    4.6460 H   0  0  0  0  0  0  0  0  0  0  0  0
   -0.2080   32.6630    6.8070 H   0  0  0  0  0  0  0  0  0  0  0  0
    3.4560   29.1560    5.5800 H   0  0  0  0  0  0  0  0  0  0  0  0
    2.8910   27.0620    8.5870 H   0  0  0  0  0  0  0  0  0  0  0  0
    5.7800   23.3770    7.3530 S   0  0  0  0  0  0  0  0  0  0  0  0
    5.8160   22.5480    6.1410 O   0  0  0  0  0  0  0  0  0  0  0  0
    7.0940   23.6570    7.9390 O   0  0  0  0  0  0  0  0  0  0  0  0
    4.8180   22.5310    8.4600 N   0  0  0  0  0  0  0  0  0  0  0  0
    3.8620   22.2290    8.2270 H   0  0  0  0  0  0  0  0  0  0  0  0
    4.8810   22.8200    9.4800 H   0  0  0  0  0  0  0  0  0  0  0  0
    5.9820   24.9580    4.9150 O   0  0  0  0  0  0  0  0  0  0  0  0
    6.2270   25.6030    3.6330 C   0  0  0  0  0  0  0  0  0  0  0  0
    6.9290   24.8810    3.1500 H   0  0  0  0  0  0  0  0  0  0  0  0
    5.2770   25.6840    3.0630 H   0  0  0  0  0  0  0  0  0  0  0  0
    6.7150   26.5880    3.7930 H   0  0  0  0  0  0  0  0  0  0  0  0
  1 14  2  0  0  0  0
  1 21  1  0  0  0  0
  1 22  1  0  0  0  0
  2 18  2  0  0  0  0
  2 19  1  0  0  0  0
  2 25  1  0  0  0  0
  3  4  1  0  0  0  0
  3 16  1  0  0  0  0
  3 26  1  0  0  0  0
  3 27  1  0  0  0  0
  4  5  1  0  0  0  0
  4  9  1  0  0  0  0
  4 28  1  0  0  0  0
  5  6  1  0  0  0  0
  5 29  1  0  0  0  0
  5 30  1  0  0  0  0
  6  7  1  0  0  0  0
  6 31  1  0  0  0  0
  6 32  1  0  0  0  0
  7  8  1  0  0  0  0
  7 33  1  0  0  0  0
  7 34  1  0  0  0  0
  8  9  1  0  0  0  0
  8 35  1  0  0  0  0
  8 36  1  0  0  0  0
  9 37  1  0  0  0  0
  9 38  1  0  0  0  0
 10 11  2  0  0  0  0
 10 24  1  0  0  0  0
 10 39  1  0  0  0  0
 11 12  1  0  0  0  0
 11 44  1  0  0  0  0
 12 13  2  0  0  0  0
 12 50  1  0  0  0  0
 13 23  1  0  0  0  0
 13 40  1  0  0  0  0
 14 15  1  0  0  0  0
 15 16  1  0  0  0  0
 15 17  2  0  0  0  0
 17 18  1  0  0  0  0
 17 20  1  0  0  0  0
 19 20  1  0  0  0  0
 19 41  1  0  0  0  0
 20 21  2  0  0  0  0
 22 23  1  0  0  0  0
 22 42  1  0  0  0  0
 23 24  2  0  0  0  0
 24 43  1  0  0  0  0
 44 45  2  0  0  0  0
 44 46  2  0  0  0  0
 44 47  1  0  0  0  0
 47 49  1  0  0  0  0
 47 48  1  0  0  0  0
 50 51  1  0  0  0  0
 51 52  1  0  0  0  0
 51 53  1  0  0  0  0
 51 54  1  0  0  0  0
M  END
$$$$
