18631-1
 OpenBabel02232411163D
Structure written by MMmdl.
 42 43  0  0  0  0  0  0  0  0999 V2000
   23.8480   12.6260   30.3330 C   0  0  0  0  0  0  0  0  0  0  0  0
   23.4100   11.1800   30.4600 C   0  0  0  0  0  0  0  0  0  0  0  0
   22.1520   11.2770   31.2440 O   0  0  0  0  0  0  0  0  0  0  0  0
   21.5150   10.1350   31.5820 C   0  0  0  0  0  0  0  0  0  0  0  0
   21.9920    8.9480   31.1400 N   0  0  0  0  0  0  0  0  0  0  0  0
   21.2600    7.8100   31.4500 C   0  0  0  0  0  0  0  0  0  0  0  0
   20.1050    7.8480   32.2250 C   0  0  0  0  0  0  0  0  0  0  0  0
   19.6220    9.0970   32.6990 C   0  0  0  0  0  0  0  0  0  0  0  0
   18.4800    9.1410   33.4590 N   0  0  0  0  0  0  0  0  0  0  0  0
   20.3300   10.2950   32.3600 C   0  0  0  0  0  0  0  0  0  0  0  0
   19.9070   11.5940   32.7120 C   0  0  0  0  0  0  0  0  0  0  0  0
   19.6060   12.6870   32.9580 N   0  0  0  0  0  0  0  0  0  0  0  0
   21.8220    6.6510   30.8710 N   0  0  0  0  0  0  0  0  0  0  0  0
   21.2320    5.3640   30.8060 C   0  0  0  0  0  0  0  0  0  0  0  0
   20.1670    5.1090   31.3270 O   0  0  0  0  0  0  0  0  0  0  0  0
   22.0270    4.3740   29.9660 C   0  0  0  0  0  0  0  0  0  0  0  0
   23.3330    3.9970   30.5980 C   0  0  0  0  0  0  0  0  0  0  0  0
   24.4920    4.7950   30.3970 C   0  0  0  0  0  0  0  0  0  0  0  0
   24.2620    5.8790   29.5660 O   0  0  0  0  0  0  0  0  0  0  0  0
   25.3290    6.8490   29.3920 C   0  0  0  0  0  0  0  0  0  0  0  0
   25.7190    4.4750   30.9790 C   0  0  0  0  0  0  0  0  0  0  0  0
   25.8070    3.3290   31.7790 C   0  0  0  0  0  0  0  0  0  0  0  0
   24.6890    2.5200   31.9760 C   0  0  0  0  0  0  0  0  0  0  0  0
   23.4620    2.8490   31.3820 C   0  0  0  0  0  0  0  0  0  0  0  0
   24.0550   13.0780   31.3290 H   0  0  0  0  0  0  0  0  0  0  0  0
   23.0720   13.2370   29.8150 H   0  0  0  0  0  0  0  0  0  0  0  0
   24.7850   12.6630   29.7210 H   0  0  0  0  0  0  0  0  0  0  0  0
   23.1610   10.7240   29.4750 H   0  0  0  0  0  0  0  0  0  0  0  0
   24.1330   10.5620   31.0380 H   0  0  0  0  0  0  0  0  0  0  0  0
   19.5510    6.9360   32.4620 H   0  0  0  0  0  0  0  0  0  0  0  0
   17.9740    8.2730   33.7170 H   0  0  0  0  0  0  0  0  0  0  0  0
   18.0830   10.0280   33.7700 H   0  0  0  0  0  0  0  0  0  0  0  0
   22.7460    6.7910   30.3940 H   0  0  0  0  0  0  0  0  0  0  0  0
   21.4030    3.4560   29.8120 H   0  0  0  0  0  0  0  0  0  0  0  0
   22.2240    4.8400   28.9620 H   0  0  0  0  0  0  0  0  0  0  0  0
   25.6230    7.2770   30.3740 H   0  0  0  0  0  0  0  0  0  0  0  0
   26.1860    6.3740   28.8700 H   0  0  0  0  0  0  0  0  0  0  0  0
   24.8320    7.6130   28.7510 H   0  0  0  0  0  0  0  0  0  0  0  0
   26.6090    5.0860   30.8240 H   0  0  0  0  0  0  0  0  0  0  0  0
   26.7640    3.0700   32.2430 H   0  0  0  0  0  0  0  0  0  0  0  0
   24.7690    1.6200   32.5920 H   0  0  0  0  0  0  0  0  0  0  0  0
   22.6060    2.1870   31.5430 H   0  0  0  0  0  0  0  0  0  0  0  0
  1  2  1  0  0  0  0
  1 25  1  0  0  0  0
  1 26  1  0  0  0  0
  1 27  1  0  0  0  0
  2  3  1  0  0  0  0
  2 28  1  0  0  0  0
  2 29  1  0  0  0  0
  3  4  1  0  0  0  0
  4 10  2  0  0  0  0
  4  5  1  0  0  0  0
  5  6  2  0  0  0  0
  6  7  1  0  0  0  0
  6 13  1  0  0  0  0
  7  8  2  0  0  0  0
  7 30  1  0  0  0  0
  8  9  1  0  0  0  0
  8 10  1  0  0  0  0
  9 31  1  0  0  0  0
  9 32  1  0  0  0  0
 10 11  1  0  0  0  0
 11 12  3  0  0  0  0
 13 14  1  0  0  0  0
 13 33  1  0  0  0  0
 14 15  2  0  0  0  0
 14 16  1  0  0  0  0
 16 17  1  0  0  0  0
 16 34  1  0  0  0  0
 16 35  1  0  0  0  0
 17 24  2  0  0  0  0
 17 18  1  0  0  0  0
 18 19  1  0  0  0  0
 18 21  2  0  0  0  0
 19 20  1  0  0  0  0
 20 36  1  0  0  0  0
 20 37  1  0  0  0  0
 20 38  1  0  0  0  0
 21 22  1  0  0  0  0
 21 39  1  0  0  0  0
 22 23  2  0  0  0  0
 22 40  1  0  0  0  0
 23 24  1  0  0  0  0
 23 41  1  0  0  0  0
 24 42  1  0  0  0  0
M  END
$$$$
