6b
 OpenBabel02232411173D

 55 57  0  0  1  0  0  0  0  0999 V2000
   18.0220  -13.0510   21.5500 N   0  0  0  0  0  0  0  0  0  0  0  0
   17.7250  -11.7100   20.9560 C   0  0  2  0  0  0  0  0  0  0  0  0
   17.1500  -13.6340   22.4270 C   0  0  0  0  0  0  0  0  0  0  0  0
   16.1340  -13.0460   22.7920 O   0  0  0  0  0  0  0  0  0  0  0  0
   16.2950  -11.6870   20.3460 C   0  0  0  0  0  0  0  0  0  0  0  0
   15.8550  -12.5860   19.6430 O   0  0  0  0  0  0  0  0  0  0  0  0
   18.8090  -11.4900   19.8850 C   0  0  0  0  0  0  0  0  0  0  0  0
   17.4620  -15.0570   22.9630 C   0  0  2  0  0  0  0  0  0  0  0  0
   15.5890  -10.5230   20.5940 N   0  0  0  0  0  0  0  0  0  0  0  0
   19.8940  -12.5620   20.1010 C   0  0  0  0  0  0  0  0  0  0  0  0
   16.1470  -15.8600   22.9100 N   0  3  0  0  0  0  0  0  0  0  0  0
   17.9690  -15.0240   24.4180 C   0  0  0  0  0  0  0  0  0  0  0  0
   14.1470  -10.3750   20.2720 C   0  0  0  0  0  0  0  0  0  0  0  0
   19.2730  -13.6530   20.9940 C   0  0  0  0  0  0  0  0  0  0  0  0
   19.4150  -14.6030   24.5270 C   0  0  0  0  0  0  0  0  0  0  0  0
   13.2730  -10.3390   21.5050 C   0  0  0  0  0  0  0  0  0  0  0  0
   19.7620  -13.4540   25.2480 C   0  0  0  0  0  0  0  0  0  0  0  0
   12.3560  -11.3610   21.8190 C   0  0  0  0  0  0  0  0  0  0  0  0
   21.1020  -13.0750   25.3760 C   0  0  0  0  0  0  0  0  0  0  0  0
   11.4620  -11.1690   22.8900 C   0  0  0  0  0  0  0  0  0  0  0  0
   22.1100  -13.8630   24.8160 C   0  0  0  0  0  0  0  0  0  0  0  0
   11.5280  -10.0350   23.6990 C   0  0  0  0  0  0  0  0  0  0  0  0
   21.7690  -15.0280   24.1170 C   0  0  0  0  0  0  0  0  0  0  0  0
   12.5150   -9.0830   23.4310 C   0  0  0  0  0  0  0  0  0  0  0  0
   20.4300  -15.3950   23.9660 C   0  0  0  0  0  0  0  0  0  0  0  0
   13.3620   -9.2070   22.3320 C   0  0  0  0  0  0  0  0  0  0  0  0
   17.8240  -10.9380   21.7670 H   0  0  0  0  0  0  0  0  0  0  0  0
   18.3860  -11.5800   18.8580 H   0  0  0  0  0  0  0  0  0  0  0  0
   19.2360  -10.4750   20.0230 H   0  0  0  0  0  0  0  0  0  0  0  0
   18.1970  -15.6210   22.3180 H   0  0  0  0  0  0  0  0  0  0  0  0
   16.0070   -9.7950   21.2010 H   0  0  0  0  0  0  0  0  0  0  0  0
   20.2190  -13.0060   19.1300 H   0  0  0  0  0  0  0  0  0  0  0  0
   20.7860  -12.1220   20.6040 H   0  0  0  0  0  0  0  0  0  0  0  0
   16.3030  -16.8180   23.3410 H   0  0  0  0  0  0  0  0  0  0  0  0
   15.3760  -15.3410   23.4450 H   0  0  0  0  0  0  0  0  0  0  0  0
   15.8460  -16.0050   21.9060 H   0  0  0  0  0  0  0  0  0  0  0  0
   17.3160  -14.3500   25.0280 H   0  0  0  0  0  0  0  0  0  0  0  0
   17.8950  -16.0620   24.8510 H   0  0  0  0  0  0  0  0  0  0  0  0
   14.0310   -9.3960   19.7240 H   0  0  0  0  0  0  0  0  0  0  0  0
   13.8450  -11.2040   19.5760 H   0  0  0  0  0  0  0  0  0  0  0  0
   19.9630  -13.9310   21.8310 H   0  0  0  0  0  0  0  0  0  0  0  0
   19.0230  -14.5640   20.3900 H   0  0  0  0  0  0  0  0  0  0  0  0
   18.9870  -12.8660   25.7310 H   0  0  0  0  0  0  0  0  0  0  0  0
   21.3380  -12.1580   25.9230 H   0  0  0  0  0  0  0  0  0  0  0  0
   10.7050  -11.9310   23.1030 H   0  0  0  0  0  0  0  0  0  0  0  0
   23.1620  -13.5850   24.9280 H   0  0  0  0  0  0  0  0  0  0  0  0
   22.5450  -15.6680   23.6850 H   0  0  0  0  0  0  0  0  0  0  0  0
   12.7330   -7.7600   24.5100 Cl  0  0  0  0  0  0  0  0  0  0  0  0
   20.1730  -16.3060   23.4210 H   0  0  0  0  0  0  0  0  0  0  0  0
   14.1040   -8.4390   22.1130 H   0  0  0  0  0  0  0  0  0  0  0  0
   10.8200   -9.9120   24.5250 H   0  0  0  0  0  0  0  0  0  0  0  0
   12.3170  -12.6590   21.0780 C   0  0  0  0  0  0  0  0  0  0  0  0
   11.5420  -13.3450   21.5040 H   0  0  0  0  0  0  0  0  0  0  0  0
   12.0950  -12.5160   19.9980 H   0  0  0  0  0  0  0  0  0  0  0  0
   13.3000  -13.1810   21.1770 H   0  0  0  0  0  0  0  0  0  0  0  0
  1  2  1  0  0  0  0
  1 14  1  0  0  0  0
  1  3  1  0  0  0  0
  2  5  1  0  0  0  0
  2  7  1  0  0  0  0
  2 27  1  1  0  0  0
  3  8  1  0  0  0  0
  3  4  2  0  0  0  0
  5  6  2  0  0  0  0
  5  9  1  0  0  0  0
  7 10  1  0  0  0  0
  7 28  1  0  0  0  0
  7 29  1  0  0  0  0
  8 11  1  0  0  0  0
  8 12  1  0  0  0  0
  8 30  1  6  0  0  0
  9 13  1  0  0  0  0
  9 31  1  0  0  0  0
 10 14  1  0  0  0  0
 10 32  1  0  0  0  0
 10 33  1  0  0  0  0
 11 34  1  0  0  0  0
 11 35  1  0  0  0  0
 11 36  1  0  0  0  0
 12 15  1  0  0  0  0
 12 37  1  0  0  0  0
 12 38  1  0  0  0  0
 13 16  1  0  0  0  0
 13 39  1  0  0  0  0
 13 40  1  0  0  0  0
 14 41  1  0  0  0  0
 14 42  1  0  0  0  0
 15 17  2  0  0  0  0
 15 25  1  0  0  0  0
 16 18  2  0  0  0  0
 16 26  1  0  0  0  0
 17 19  1  0  0  0  0
 17 43  1  0  0  0  0
 18 20  1  0  0  0  0
 18 52  1  0  0  0  0
 19 21  2  0  0  0  0
 19 44  1  0  0  0  0
 20 22  2  0  0  0  0
 20 45  1  0  0  0  0
 21 23  1  0  0  0  0
 21 46  1  0  0  0  0
 22 24  1  0  0  0  0
 22 51  1  0  0  0  0
 23 25  2  0  0  0  0
 23 47  1  0  0  0  0
 24 26  2  0  0  0  0
 24 48  1  0  0  0  0
 25 49  1  0  0  0  0
 26 50  1  0  0  0  0
 52 53  1  0  0  0  0
 52 54  1  0  0  0  0
 52 55  1  0  0  0  0
M  CHG  1  11   1
M  END
$$$$
