p38a_2r
 OpenBabel02232411163D
Structure written by MMmdl.
 56 59  0  0  0  0  0  0  0  0999 V2000
   36.3150   35.8840   16.0060 C   0  0  0  0  0  0  0  0  0  0  0  0
   34.4010   34.9640   21.5700 C   0  0  0  0  0  0  0  0  0  0  0  0
   35.5760   35.4640   17.1080 C   0  0  0  0  0  0  0  0  0  0  0  0
   34.0690   39.0580   24.1460 C   0  0  0  0  0  0  0  0  0  0  0  0
   34.6730   37.8310   21.7510 C   0  0  0  0  0  0  0  0  0  0  0  0
   35.0610   37.1660   20.5360 C   0  0  0  0  0  0  0  0  0  0  0  0
   37.6070   36.3620   16.2670 C   0  0  0  0  0  0  0  0  0  0  0  0
   38.1740   36.3940   17.5440 C   0  0  0  0  0  0  0  0  0  0  0  0
   37.4000   35.9910   18.6380 C   0  0  0  0  0  0  0  0  0  0  0  0
   34.2000   37.0780   22.8680 C   0  0  0  0  0  0  0  0  0  0  0  0
   34.7560   39.2400   21.9120 C   0  0  0  0  0  0  0  0  0  0  0  0
   34.9540   35.8190   20.4770 C   0  0  0  0  0  0  0  0  0  0  0  0
   36.0980   35.5370   18.4170 C   0  0  0  0  0  0  0  0  0  0  0  0
   34.3560   34.9680   16.9520 F   0  0  0  0  0  0  0  0  0  0  0  0
   35.2770   34.9850   19.4070 O   0  0  0  0  0  0  0  0  0  0  0  0
   34.4630   39.8680   23.0610 N   0  0  0  0  0  0  0  0  0  0  0  0
   34.2900   33.7640   21.5070 O   0  0  0  0  0  0  0  0  0  0  0  0
   34.0240   35.6870   22.7640 N   0  0  0  0  0  0  0  0  0  0  0  0
   33.9190   37.6860   24.0650 N   0  0  0  0  0  0  0  0  0  0  0  0
   33.8110   39.6760   25.3450 N   0  0  0  0  0  0  0  0  0  0  0  0
   35.9050   35.8710   14.9930 H   0  0  0  0  0  0  0  0  0  0  0  0
   35.4420   37.7780   19.7150 H   0  0  0  0  0  0  0  0  0  0  0  0
   39.1960   36.7560   17.6890 H   0  0  0  0  0  0  0  0  0  0  0  0
   37.8100   36.0640   19.6480 H   0  0  0  0  0  0  0  0  0  0  0  0
   35.0690   39.8700   21.0630 H   0  0  0  0  0  0  0  0  0  0  0  0
   33.8810   40.7070   25.4200 H   0  0  0  0  0  0  0  0  0  0  0  0
   38.3130   36.8430   15.2450 F   0  0  0  0  0  0  0  0  0  0  0  0
   33.4880   40.7350   28.3670 C   0  0  0  0  0  0  0  0  0  0  0  0
   32.5800   39.8610   27.4930 C   0  0  0  0  0  0  0  0  0  0  0  0
   33.3580   38.9160   26.5540 C   0  0  0  0  0  0  0  0  0  0  0  0
   34.5440   38.2500   27.2840 C   0  0  0  0  0  0  0  0  0  0  0  0
   35.3600   39.2500   28.1030 C   0  0  0  0  0  0  0  0  0  0  0  0
   34.5170   39.9740   29.0320 O   0  0  0  0  0  0  0  0  0  0  0  0
   32.9190   41.1710   29.2200 H   0  0  0  0  0  0  0  0  0  0  0  0
   33.9750   41.5290   27.7570 H   0  0  0  0  0  0  0  0  0  0  0  0
   31.9150   40.5260   26.8890 H   0  0  0  0  0  0  0  0  0  0  0  0
   31.9290   39.2270   28.1450 H   0  0  0  0  0  0  0  0  0  0  0  0
   32.6530   38.1050   26.2070 H   0  0  0  0  0  0  0  0  0  0  0  0
   34.1230   37.4590   27.9560 H   0  0  0  0  0  0  0  0  0  0  0  0
   35.2090   37.7410   26.5440 H   0  0  0  0  0  0  0  0  0  0  0  0
   36.0710   38.7330   28.7870 H   0  0  0  0  0  0  0  0  0  0  0  0
   35.8760   39.9830   27.4420 H   0  0  0  0  0  0  0  0  0  0  0  0
   33.4160   34.9290   23.8970 C   0  0  0  0  0  0  0  0  0  0  0  0
   33.8760   33.9030   23.9200 H   0  0  0  0  0  0  0  0  0  0  0  0
   33.6680   35.4410   24.8720 H   0  0  0  0  0  0  0  0  0  0  0  0
   31.8590   34.8020   23.8040 C   0  0  0  0  0  0  0  0  0  0  0  0
   31.5570   34.4200   22.4410 O   0  0  0  0  0  0  0  0  0  0  0  0
   30.8410   34.9990   22.0920 H   0  0  0  0  0  0  0  0  0  0  0  0
   31.1290   36.1020   24.1510 C   0  0  0  0  0  0  0  0  0  0  0  0
   31.4830   36.9510   23.5320 H   0  0  0  0  0  0  0  0  0  0  0  0
   30.0300   35.9840   24.0110 H   0  0  0  0  0  0  0  0  0  0  0  0
   31.3030   36.3690   25.2210 H   0  0  0  0  0  0  0  0  0  0  0  0
   31.3920   33.6510   24.7080 C   0  0  0  0  0  0  0  0  0  0  0  0
   30.2800   33.5730   24.6870 H   0  0  0  0  0  0  0  0  0  0  0  0
   31.8200   32.6760   24.3880 H   0  0  0  0  0  0  0  0  0  0  0  0
   31.7000   33.8410   25.7650 H   0  0  0  0  0  0  0  0  0  0  0  0
  1  3  2  0  0  0  0
  1  7  1  0  0  0  0
  1 21  1  0  0  0  0
  2 12  1  0  0  0  0
  2 17  2  0  0  0  0
  2 18  1  0  0  0  0
  3 13  1  0  0  0  0
  3 14  1  0  0  0  0
  4 16  2  0  0  0  0
  4 19  1  0  0  0  0
  4 20  1  0  0  0  0
  5  6  1  0  0  0  0
  5 10  1  0  0  0  0
  5 11  2  0  0  0  0
  6 12  2  0  0  0  0
  6 22  1  0  0  0  0
  7  8  2  0  0  0  0
  7 27  1  0  0  0  0
  8  9  1  0  0  0  0
  8 23  1  0  0  0  0
  9 13  2  0  0  0  0
  9 24  1  0  0  0  0
 10 18  1  0  0  0  0
 10 19  2  0  0  0  0
 11 16  1  0  0  0  0
 11 25  1  0  0  0  0
 12 15  1  0  0  0  0
 13 15  1  0  0  0  0
 18 43  1  0  0  0  0
 20 26  1  0  0  0  0
 20 30  1  0  0  0  0
 28 29  1  0  0  0  0
 28 33  1  0  0  0  0
 28 34  1  0  0  0  0
 28 35  1  0  0  0  0
 29 30  1  0  0  0  0
 29 36  1  0  0  0  0
 29 37  1  0  0  0  0
 30 31  1  0  0  0  0
 30 38  1  0  0  0  0
 31 32  1  0  0  0  0
 31 39  1  0  0  0  0
 31 40  1  0  0  0  0
 32 33  1  0  0  0  0
 32 41  1  0  0  0  0
 32 42  1  0  0  0  0
 43 44  1  0  0  0  0
 43 45  1  0  0  0  0
 43 46  1  0  0  0  0
 46 47  1  0  0  0  0
 46 49  1  0  0  0  0
 46 53  1  0  0  0  0
 47 48  1  0  0  0  0
 49 50  1  0  0  0  0
 49 51  1  0  0  0  0
 49 52  1  0  0  0  0
 53 54  1  0  0  0  0
 53 55  1  0  0  0  0
 53 56  1  0  0  0  0
M  END
$$$$
