18639-1
 OpenBabel02232411163D
Structure written by MMmdl.
 48 49  0  0  0  0  0  0  0  0999 V2000
   23.2220   10.7750   29.0650 C   0  0  0  0  0  0  0  0  0  0  0  0
   23.4990   11.0260   30.5330 C   0  0  0  0  0  0  0  0  0  0  0  0
   22.2330   11.1430   31.2890 O   0  0  0  0  0  0  0  0  0  0  0  0
   21.5690   10.0170   31.6350 C   0  0  0  0  0  0  0  0  0  0  0  0
   22.0330    8.8170   31.2150 N   0  0  0  0  0  0  0  0  0  0  0  0
   21.2830    7.6950   31.5270 C   0  0  0  0  0  0  0  0  0  0  0  0
   20.1150    7.7540   32.2780 C   0  0  0  0  0  0  0  0  0  0  0  0
   19.6500    9.0150   32.7400 C   0  0  0  0  0  0  0  0  0  0  0  0
   18.4950    9.0770   33.4770 N   0  0  0  0  0  0  0  0  0  0  0  0
   20.3850   10.1990   32.4100 C   0  0  0  0  0  0  0  0  0  0  0  0
   19.9950   11.5060   32.7720 C   0  0  0  0  0  0  0  0  0  0  0  0
   19.7250   12.6040   33.0290 N   0  0  0  0  0  0  0  0  0  0  0  0
   21.8570    6.5260   30.9760 N   0  0  0  0  0  0  0  0  0  0  0  0
   21.2460    5.2600   30.8670 C   0  0  0  0  0  0  0  0  0  0  0  0
   20.1460    5.0190   31.3150 O   0  0  0  0  0  0  0  0  0  0  0  0
   22.0690    4.2600   30.0640 C   0  0  0  0  0  0  0  0  0  0  0  0
   23.4360    3.9870   30.6200 C   0  0  0  0  0  0  0  0  0  0  0  0
   24.5340    4.8460   30.3010 C   0  0  0  0  0  0  0  0  0  0  0  0
   24.1800    5.8930   29.4600 O   0  0  0  0  0  0  0  0  0  0  0  0
   25.1350    6.9800   29.3000 C   0  0  0  0  0  0  0  0  0  0  0  0
   25.8130    4.6040   30.7790 C   0  0  0  0  0  0  0  0  0  0  0  0
   26.0400    3.4900   31.6140 C   0  0  0  0  0  0  0  0  0  0  0  0
   27.3910    3.2350   32.1230 N   0  3  0  0  0  0  0  0  0  0  0  0
   27.5200    2.4500   33.0490 O   0  5  0  0  0  0  0  0  0  0  0  0
   28.3330    3.8140   31.5960 O   0  0  0  0  0  0  0  0  0  0  0  0
   24.9670    2.6260   31.9340 C   0  0  0  0  0  0  0  0  0  0  0  0
   23.6740    2.8810   31.4210 C   0  0  0  0  0  0  0  0  0  0  0  0
   25.3120    1.5880   32.7470 O   0  0  0  0  0  0  0  0  0  0  0  0
   24.3130    0.5530   32.9860 C   0  0  0  0  0  0  0  0  0  0  0  0
   24.1830   10.8280   28.4960 H   0  0  0  0  0  0  0  0  0  0  0  0
   22.5280   11.5380   28.6470 H   0  0  0  0  0  0  0  0  0  0  0  0
   22.7790    9.7640   28.9060 H   0  0  0  0  0  0  0  0  0  0  0  0
   23.9120   12.0470   30.7170 H   0  0  0  0  0  0  0  0  0  0  0  0
   24.1300   10.2280   30.9850 H   0  0  0  0  0  0  0  0  0  0  0  0
   19.5420    6.8520   32.5010 H   0  0  0  0  0  0  0  0  0  0  0  0
   17.9860    8.2120   33.7430 H   0  0  0  0  0  0  0  0  0  0  0  0
   18.1070    9.9680   33.7850 H   0  0  0  0  0  0  0  0  0  0  0  0
   22.7810    6.6700   30.4970 H   0  0  0  0  0  0  0  0  0  0  0  0
   21.4940    3.2980   30.0010 H   0  0  0  0  0  0  0  0  0  0  0  0
   22.1810    4.6770   29.0220 H   0  0  0  0  0  0  0  0  0  0  0  0
   25.4510    7.3740   30.2900 H   0  0  0  0  0  0  0  0  0  0  0  0
   25.9910    6.6240   28.6880 H   0  0  0  0  0  0  0  0  0  0  0  0
   24.5200    7.7290   28.7490 H   0  0  0  0  0  0  0  0  0  0  0  0
   26.6540    5.2540   30.5110 H   0  0  0  0  0  0  0  0  0  0  0  0
   22.8560    2.1950   31.6550 H   0  0  0  0  0  0  0  0  0  0  0  0
   24.8960   -0.1800   33.5940 H   0  0  0  0  0  0  0  0  0  0  0  0
   23.4630    0.9690   33.5690 H   0  0  0  0  0  0  0  0  0  0  0  0
   23.9900    0.1040   32.0220 H   0  0  0  0  0  0  0  0  0  0  0  0
  1  2  1  0  0  0  0
  1 30  1  0  0  0  0
  1 31  1  0  0  0  0
  1 32  1  0  0  0  0
  2  3  1  0  0  0  0
  2 33  1  0  0  0  0
  2 34  1  0  0  0  0
  3  4  1  0  0  0  0
  4 10  2  0  0  0  0
  4  5  1  0  0  0  0
  5  6  2  0  0  0  0
  6  7  1  0  0  0  0
  6 13  1  0  0  0  0
  7  8  2  0  0  0  0
  7 35  1  0  0  0  0
  8  9  1  0  0  0  0
  8 10  1  0  0  0  0
  9 36  1  0  0  0  0
  9 37  1  0  0  0  0
 10 11  1  0  0  0  0
 11 12  3  0  0  0  0
 13 14  1  0  0  0  0
 13 38  1  0  0  0  0
 14 15  2  0  0  0  0
 14 16  1  0  0  0  0
 16 17  1  0  0  0  0
 16 39  1  0  0  0  0
 16 40  1  0  0  0  0
 17 27  2  0  0  0  0
 17 18  1  0  0  0  0
 18 19  1  0  0  0  0
 18 21  2  0  0  0  0
 19 20  1  0  0  0  0
 20 41  1  0  0  0  0
 20 42  1  0  0  0  0
 20 43  1  0  0  0  0
 21 22  1  0  0  0  0
 21 44  1  0  0  0  0
 22 23  1  0  0  0  0
 22 26  2  0  0  0  0
 23 24  1  0  0  0  0
 23 25  2  0  0  0  0
 26 27  1  0  0  0  0
 26 28  1  0  0  0  0
 27 45  1  0  0  0  0
 28 29  1  0  0  0  0
 29 46  1  0  0  0  0
 29 47  1  0  0  0  0
 29 48  1  0  0  0  0
M  CHG  2  23   1  24  -1
M  END
$$$$
