jmc_23
                    3D
 Schrodinger Suite 2022-3.
 36 38  0  0  1  0  0  0  0  0999 V2000
   -3.1360   22.5950  -29.6450 C   0  0  0  0  0  0  0  0  0  0  0  0
   -3.5940   21.5090  -28.8810 C   0  0  0  0  0  0  0  0  0  0  0  0
   -2.7850   20.8880  -27.9300 C   0  0  0  0  0  0  0  0  0  0  0  0
   -5.2050   25.1880  -31.5270 C   0  0  0  0  0  0  0  0  0  0  0  0
   -4.0080   23.1000  -30.7570 C   0  0  0  0  0  0  0  0  0  0  0  0
   -5.8650   24.6120  -32.6250 C   0  0  0  0  0  0  0  0  0  0  0  0
   -6.7370   25.4140  -33.3740 C   0  0  0  0  0  0  0  0  0  0  0  0
   -1.8520   23.0820  -29.3720 C   0  0  0  0  0  0  0  0  0  0  0  0
   -1.4920   21.3740  -27.7070 C   0  0  0  0  0  0  0  0  0  0  0  0
   -1.0260   22.4820  -28.4180 C   0  0  0  0  0  0  0  0  0  0  0  0
   -5.1940   20.9410  -29.1260 Cl  0  0  0  0  0  0  0  0  0  0  0  0
   -4.4060   22.3720  -31.6420 O   0  0  0  0  0  0  0  0  0  0  0  0
   -4.3380   24.4660  -30.6590 N   0  0  0  0  0  0  0  0  0  0  0  0
   -6.9630   26.7260  -33.1090 N   0  0  0  0  0  0  0  0  0  0  0  0
   -6.2980   27.2790  -32.0340 C   0  0  0  0  0  0  0  0  0  0  0  0
   -5.4150   26.5500  -31.2250 C   0  0  0  0  0  0  0  0  0  0  0  0
   -6.6100   28.6460  -31.7870 N   0  0  0  0  0  0  0  0  0  0  0  0
   -5.8100   29.5530  -31.0490 C   0  0  0  0  0  0  0  0  0  0  0  0
   -4.7500   29.2110  -30.5630 O   0  0  0  0  0  0  0  0  0  0  0  0
   -6.4010   30.9220  -30.9280 C   0  0  1  0  0  0  0  0  0  0  0  0
   -5.9400   31.8290  -29.7830 C   0  0  0  0  0  0  0  0  0  0  0  0
   -5.5700   32.1800  -31.2010 C   0  0  1  0  0  0  0  0  0  0  0  0
   -1.2510   24.4590  -30.1990 Cl  0  0  0  0  0  0  0  0  0  0  0  0
   -3.1370   20.0280  -27.3570 H   0  0  0  0  0  0  0  0  0  0  0  0
   -5.7320   23.5610  -32.8940 H   0  0  0  0  0  0  0  0  0  0  0  0
   -7.2900   24.9920  -34.2300 H   0  0  0  0  0  0  0  0  0  0  0  0
   -0.8450   20.8880  -26.9680 H   0  0  0  0  0  0  0  0  0  0  0  0
   -0.0240   22.8710  -28.2130 H   0  0  0  0  0  0  0  0  0  0  0  0
   -3.9360   25.0020  -29.8680 H   0  0  0  0  0  0  0  0  0  0  0  0
   -4.9040   27.0250  -30.3830 H   0  0  0  0  0  0  0  0  0  0  0  0
   -7.5340   28.9750  -32.1490 H   0  0  0  0  0  0  0  0  0  0  0  0
   -7.4640   30.9990  -31.2190 H   0  0  0  0  0  0  0  0  0  0  0  0
   -5.1770   31.4700  -29.0770 H   0  0  0  0  0  0  0  0  0  0  0  0
   -6.7040   32.4480  -29.2840 H   0  0  0  0  0  0  0  0  0  0  0  0
   -6.0270   33.0340  -31.7190 H   0  0  0  0  0  0  0  0  0  0  0  0
   -4.2890   32.0080  -31.5860 F   0  0  0  0  0  0  0  0  0  0  0  0
  1  2  2  0  0  0  0
  1  5  1  0  0  0  0
  1  8  1  0  0  0  0
  2  3  1  0  0  0  0
  2 11  1  0  0  0  0
  3  9  2  0  0  0  0
  3 24  1  0  0  0  0
  4  6  1  0  0  0  0
  4 13  1  0  0  0  0
  4 16  2  0  0  0  0
  5 12  2  0  0  0  0
  5 13  1  0  0  0  0
  6  7  2  0  0  0  0
  6 25  1  0  0  0  0
  7 14  1  0  0  0  0
  7 26  1  0  0  0  0
  8 10  2  0  0  0  0
  8 23  1  0  0  0  0
  9 10  1  0  0  0  0
  9 27  1  0  0  0  0
 10 28  1  0  0  0  0
 13 29  1  0  0  0  0
 14 15  2  0  0  0  0
 15 16  1  0  0  0  0
 15 17  1  0  0  0  0
 16 30  1  0  0  0  0
 17 18  1  0  0  0  0
 17 31  1  0  0  0  0
 18 19  2  0  0  0  0
 18 20  1  0  0  0  0
 20 21  1  0  0  0  0
 20 22  1  0  0  0  0
 20 32  1  0  0  0  0
 21 22  1  0  0  0  0
 21 33  1  0  0  0  0
 21 34  1  0  0  0  0
 22 35  1  0  0  0  0
 22 36  1  0  0  0  0
M  END
$$$$
