18626-1
 OpenBabel02232411163D
Structure written by MMmdl.
 38 39  0  0  0  0  0  0  0  0999 V2000
   24.4540   11.0670   30.7650 C   0  0  0  0  0  0  0  0  0  0  0  0
   23.1100   11.2790   30.1030 C   0  0  0  0  0  0  0  0  0  0  0  0
   22.0370   11.3060   31.1200 O   0  0  0  0  0  0  0  0  0  0  0  0
   21.4730   10.1460   31.5230 C   0  0  0  0  0  0  0  0  0  0  0  0
   21.9630    8.9630   31.0830 N   0  0  0  0  0  0  0  0  0  0  0  0
   21.2820    7.8120   31.4480 C   0  0  0  0  0  0  0  0  0  0  0  0
   20.1490    7.8290   32.2550 C   0  0  0  0  0  0  0  0  0  0  0  0
   19.6450    9.0750   32.7190 C   0  0  0  0  0  0  0  0  0  0  0  0
   18.5060    9.1080   33.4810 N   0  0  0  0  0  0  0  0  0  0  0  0
   20.3240   10.2830   32.3600 C   0  0  0  0  0  0  0  0  0  0  0  0
   19.9010   11.5760   32.7350 C   0  0  0  0  0  0  0  0  0  0  0  0
   19.6060   12.6650   33.0030 N   0  0  0  0  0  0  0  0  0  0  0  0
   21.8720    6.6540   30.8830 N   0  0  0  0  0  0  0  0  0  0  0  0
   21.3700    5.3290   30.9210 C   0  0  0  0  0  0  0  0  0  0  0  0
   20.3430    5.0310   31.4910 O   0  0  0  0  0  0  0  0  0  0  0  0
   22.2300    4.3460   30.1400 C   0  0  0  0  0  0  0  0  0  0  0  0
   23.5680    4.1300   30.7940 C   0  0  0  0  0  0  0  0  0  0  0  0
   23.6850    3.2160   31.8520 C   0  0  0  0  0  0  0  0  0  0  0  0
   24.9270    3.0540   32.4670 C   0  0  0  0  0  0  0  0  0  0  0  0
   25.0570    1.9700   33.8020 Cl  0  0  0  0  0  0  0  0  0  0  0  0
   26.0650    3.7420   32.0410 C   0  0  0  0  0  0  0  0  0  0  0  0
   25.9380    4.6380   30.9760 C   0  0  0  0  0  0  0  0  0  0  0  0
   24.6990    4.8370   30.3590 C   0  0  0  0  0  0  0  0  0  0  0  0
   25.2500   11.0340   29.9780 H   0  0  0  0  0  0  0  0  0  0  0  0
   24.6880   11.8920   31.4710 H   0  0  0  0  0  0  0  0  0  0  0  0
   24.4840   10.0960   31.3130 H   0  0  0  0  0  0  0  0  0  0  0  0
   22.9970   12.3110   29.6900 H   0  0  0  0  0  0  0  0  0  0  0  0
   22.8860   10.5020   29.3380 H   0  0  0  0  0  0  0  0  0  0  0  0
   19.6300    6.9060   32.5220 H   0  0  0  0  0  0  0  0  0  0  0  0
   18.0110    8.2340   33.7470 H   0  0  0  0  0  0  0  0  0  0  0  0
   18.0950    9.9910   33.7850 H   0  0  0  0  0  0  0  0  0  0  0  0
   22.7510    6.8260   30.3540 H   0  0  0  0  0  0  0  0  0  0  0  0
   21.6880    3.3650   30.0710 H   0  0  0  0  0  0  0  0  0  0  0  0
   22.3690    4.7320   29.0950 H   0  0  0  0  0  0  0  0  0  0  0  0
   22.8220    2.6310   32.1790 H   0  0  0  0  0  0  0  0  0  0  0  0
   27.0350    3.5910   32.5230 H   0  0  0  0  0  0  0  0  0  0  0  0
   26.8160    5.1880   30.6190 H   0  0  0  0  0  0  0  0  0  0  0  0
   24.6340    5.5460   29.5290 H   0  0  0  0  0  0  0  0  0  0  0  0
  1  2  1  0  0  0  0
  1 24  1  0  0  0  0
  1 25  1  0  0  0  0
  1 26  1  0  0  0  0
  2  3  1  0  0  0  0
  2 27  1  0  0  0  0
  2 28  1  0  0  0  0
  3  4  1  0  0  0  0
  4 10  2  0  0  0  0
  4  5  1  0  0  0  0
  5  6  2  0  0  0  0
  6  7  1  0  0  0  0
  6 13  1  0  0  0  0
  7  8  2  0  0  0  0
  7 29  1  0  0  0  0
  8  9  1  0  0  0  0
  8 10  1  0  0  0  0
  9 30  1  0  0  0  0
  9 31  1  0  0  0  0
 10 11  1  0  0  0  0
 11 12  3  0  0  0  0
 13 14  1  0  0  0  0
 13 32  1  0  0  0  0
 14 15  2  0  0  0  0
 14 16  1  0  0  0  0
 16 17  1  0  0  0  0
 16 33  1  0  0  0  0
 16 34  1  0  0  0  0
 17 23  2  0  0  0  0
 17 18  1  0  0  0  0
 18 19  2  0  0  0  0
 18 35  1  0  0  0  0
 19 20  1  0  0  0  0
 19 21  1  0  0  0  0
 21 22  2  0  0  0  0
 21 36  1  0  0  0  0
 22 23  1  0  0  0  0
 22 37  1  0  0  0  0
 23 38  1  0  0  0  0
M  END
$$$$
