p38a_2aa
 OpenBabel02232411163D
Structure written by MMmdl.
 43 45  0  0  0  0  0  0  0  0999 V2000
   36.3860   36.0890   15.7310 C   0  0  0  0  0  0  0  0  0  0  0  0
   34.5080   35.0000   21.1670 C   0  0  0  0  0  0  0  0  0  0  0  0
   35.7700   35.5860   16.8730 C   0  0  0  0  0  0  0  0  0  0  0  0
   33.8050   39.0830   23.6690 C   0  0  0  0  0  0  0  0  0  0  0  0
   32.6130   39.0060   25.8790 C   0  0  0  0  0  0  0  0  0  0  0  0
   34.7600   37.8620   21.3900 C   0  0  0  0  0  0  0  0  0  0  0  0
   35.3160   37.1920   20.2450 C   0  0  0  0  0  0  0  0  0  0  0  0
   37.6730   36.6170   15.8970 C   0  0  0  0  0  0  0  0  0  0  0  0
   38.3500   36.6280   17.1190 C   0  0  0  0  0  0  0  0  0  0  0  0
   37.6950   36.1510   18.2600 C   0  0  0  0  0  0  0  0  0  0  0  0
   34.1570   37.1040   22.4370 C   0  0  0  0  0  0  0  0  0  0  0  0
   34.7910   39.2720   21.5530 C   0  0  0  0  0  0  0  0  0  0  0  0
   35.2170   35.8450   20.1670 C   0  0  0  0  0  0  0  0  0  0  0  0
   36.4050   35.6310   18.1310 C   0  0  0  0  0  0  0  0  0  0  0  0
   33.4350   34.9350   23.4470 C   0  0  0  0  0  0  0  0  0  0  0  0
   34.5660   35.0370   16.8030 F   0  0  0  0  0  0  0  0  0  0  0  0
   35.7240   35.0020   19.1820 O   0  0  0  0  0  0  0  0  0  0  0  0
   34.3370   39.8950   22.6540 N   0  0  0  0  0  0  0  0  0  0  0  0
   34.3080   33.8100   21.0650 O   0  0  0  0  0  0  0  0  0  0  0  0
   34.0380   35.7120   22.3280 N   0  0  0  0  0  0  0  0  0  0  0  0
   33.6620   37.7120   23.5650 N   0  0  0  0  0  0  0  0  0  0  0  0
   33.4330   39.6990   24.8460 N   0  0  0  0  0  0  0  0  0  0  0  0
   35.8840   36.0950   14.7610 H   0  0  0  0  0  0  0  0  0  0  0  0
   32.7230   39.8230   27.1950 C   0  0  0  0  0  0  0  0  0  0  0  0
   35.8100   37.8000   19.4840 H   0  0  0  0  0  0  0  0  0  0  0  0
   39.3630   37.0310   17.1990 H   0  0  0  0  0  0  0  0  0  0  0  0
   38.1890   36.2130   19.2330 H   0  0  0  0  0  0  0  0  0  0  0  0
   35.1930   39.9080   20.7480 H   0  0  0  0  0  0  0  0  0  0  0  0
   33.8420   35.2960   24.4320 H   0  0  0  0  0  0  0  0  0  0  0  0
   32.3210   35.0640   23.4470 H   0  0  0  0  0  0  0  0  0  0  0  0
   33.6830   33.8460   23.3370 H   0  0  0  0  0  0  0  0  0  0  0  0
   33.4570   40.7360   24.9070 H   0  0  0  0  0  0  0  0  0  0  0  0
   38.2620   37.1660   14.8370 F   0  0  0  0  0  0  0  0  0  0  0  0
   31.1300   38.8810   25.4500 C   0  0  0  0  0  0  0  0  0  0  0  0
   30.8640   37.6670   24.7480 O   0  0  0  0  0  0  0  0  0  0  0  0
   31.6190   37.4420   24.1570 H   0  0  0  0  0  0  0  0  0  0  0  0
   30.4780   38.8000   26.3560 H   0  0  0  0  0  0  0  0  0  0  0  0
   30.8210   39.7360   24.8090 H   0  0  0  0  0  0  0  0  0  0  0  0
   31.8890   39.2240   28.1920 O   0  0  0  0  0  0  0  0  0  0  0  0
   33.7820   39.8710   27.5440 H   0  0  0  0  0  0  0  0  0  0  0  0
   32.2930   40.8450   27.0840 H   0  0  0  0  0  0  0  0  0  0  0  0
   32.3140   38.3870   28.5180 H   0  0  0  0  0  0  0  0  0  0  0  0
   33.0460   37.9790   26.0570 H   0  0  0  0  0  0  0  0  0  0  0  0
  1  3  2  0  0  0  0
  1  8  1  0  0  0  0
  1 23  1  0  0  0  0
  2 13  1  0  0  0  0
  2 19  2  0  0  0  0
  2 20  1  0  0  0  0
  3 14  1  0  0  0  0
  3 16  1  0  0  0  0
  4 18  2  0  0  0  0
  4 21  1  0  0  0  0
  4 22  1  0  0  0  0
  5 22  1  0  0  0  0
  5 24  1  0  0  0  0
  5 34  1  0  0  0  0
  5 43  1  0  0  0  0
  6  7  1  0  0  0  0
  6 11  1  0  0  0  0
  6 12  2  0  0  0  0
  7 13  2  0  0  0  0
  7 25  1  0  0  0  0
  8  9  2  0  0  0  0
  8 33  1  0  0  0  0
  9 10  1  0  0  0  0
  9 26  1  0  0  0  0
 10 14  2  0  0  0  0
 10 27  1  0  0  0  0
 11 20  1  0  0  0  0
 11 21  2  0  0  0  0
 12 18  1  0  0  0  0
 12 28  1  0  0  0  0
 13 17  1  0  0  0  0
 14 17  1  0  0  0  0
 15 20  1  0  0  0  0
 15 29  1  0  0  0  0
 15 30  1  0  0  0  0
 15 31  1  0  0  0  0
 22 32  1  0  0  0  0
 24 39  1  0  0  0  0
 24 40  1  0  0  0  0
 24 41  1  0  0  0  0
 34 35  1  0  0  0  0
 34 37  1  0  0  0  0
 34 38  1  0  0  0  0
 35 36  1  0  0  0  0
 39 42  1  0  0  0  0
M  END
$$$$
