18639-1
 OpenBabel02232411163D
Structure written by MMmdl.
 48 49  0  0  0  0  0  0  0  0999 V2000
   23.8450   12.6610   30.3360 C   0  0  0  0  0  0  0  0  0  0  0  0
   23.3950   11.2170   30.4500 C   0  0  0  0  0  0  0  0  0  0  0  0
   22.1430   11.3170   31.2460 O   0  0  0  0  0  0  0  0  0  0  0  0
   21.5150   10.1750   31.5970 C   0  0  0  0  0  0  0  0  0  0  0  0
   22.0050    8.9870   31.1690 N   0  0  0  0  0  0  0  0  0  0  0  0
   21.2810    7.8480   31.4870 C   0  0  0  0  0  0  0  0  0  0  0  0
   20.1200    7.8830   32.2530 C   0  0  0  0  0  0  0  0  0  0  0  0
   19.6240    9.1330   32.7130 C   0  0  0  0  0  0  0  0  0  0  0  0
   18.4780    9.1690   33.4660 N   0  0  0  0  0  0  0  0  0  0  0  0
   20.3250   10.3320   32.3700 C   0  0  0  0  0  0  0  0  0  0  0  0
   19.8930   11.6320   32.7080 C   0  0  0  0  0  0  0  0  0  0  0  0
   19.5850   12.7260   32.9420 N   0  0  0  0  0  0  0  0  0  0  0  0
   21.8590    6.6810   30.9330 N   0  0  0  0  0  0  0  0  0  0  0  0
   21.2650    5.4040   30.8640 C   0  0  0  0  0  0  0  0  0  0  0  0
   20.1790    5.1530   31.3430 O   0  0  0  0  0  0  0  0  0  0  0  0
   22.0800    4.3950   30.0610 C   0  0  0  0  0  0  0  0  0  0  0  0
   23.4410    4.1060   30.6220 C   0  0  0  0  0  0  0  0  0  0  0  0
   24.5490    4.9520   30.3030 C   0  0  0  0  0  0  0  0  0  0  0  0
   24.2040    6.0020   29.4630 O   0  0  0  0  0  0  0  0  0  0  0  0
   25.1790    7.0670   29.2800 C   0  0  0  0  0  0  0  0  0  0  0  0
   25.8260    4.6920   30.7770 C   0  0  0  0  0  0  0  0  0  0  0  0
   26.0420    3.5720   31.6070 C   0  0  0  0  0  0  0  0  0  0  0  0
   27.3920    3.2940   32.1040 N   0  3  0  0  0  0  0  0  0  0  0  0
   27.5190    2.4920   33.0160 O   0  5  0  0  0  0  0  0  0  0  0  0
   28.3380    3.8720   31.5810 O   0  0  0  0  0  0  0  0  0  0  0  0
   24.9580    2.7220   31.9280 C   0  0  0  0  0  0  0  0  0  0  0  0
   23.6660    2.9950   31.4200 C   0  0  0  0  0  0  0  0  0  0  0  0
   25.2920    1.6780   32.7380 O   0  0  0  0  0  0  0  0  0  0  0  0
   24.2840    0.6510   32.9720 C   0  0  0  0  0  0  0  0  0  0  0  0
   24.7770   12.6950   29.7170 H   0  0  0  0  0  0  0  0  0  0  0  0
   23.0700   13.2830   29.8290 H   0  0  0  0  0  0  0  0  0  0  0  0
   24.0620   13.1000   31.3350 H   0  0  0  0  0  0  0  0  0  0  0  0
   23.1300   10.7730   29.4640 H   0  0  0  0  0  0  0  0  0  0  0  0
   24.1170   10.5850   31.0130 H   0  0  0  0  0  0  0  0  0  0  0  0
   19.5720    6.9680   32.4880 H   0  0  0  0  0  0  0  0  0  0  0  0
   17.9730    8.2950   33.7110 H   0  0  0  0  0  0  0  0  0  0  0  0
   18.0660   10.0530   33.7640 H   0  0  0  0  0  0  0  0  0  0  0  0
   22.7790    6.8230   30.4470 H   0  0  0  0  0  0  0  0  0  0  0  0
   21.4930    3.4400   29.9980 H   0  0  0  0  0  0  0  0  0  0  0  0
   22.1990    4.8060   29.0180 H   0  0  0  0  0  0  0  0  0  0  0  0
   25.5130    7.4640   30.2620 H   0  0  0  0  0  0  0  0  0  0  0  0
   26.0220    6.6880   28.6640 H   0  0  0  0  0  0  0  0  0  0  0  0
   24.5740    7.8220   28.7270 H   0  0  0  0  0  0  0  0  0  0  0  0
   26.6750    5.3320   30.5080 H   0  0  0  0  0  0  0  0  0  0  0  0
   22.8410    2.3190   31.6550 H   0  0  0  0  0  0  0  0  0  0  0  0
   24.8600   -0.0900   33.5770 H   0  0  0  0  0  0  0  0  0  0  0  0
   23.4380    1.0710   33.5560 H   0  0  0  0  0  0  0  0  0  0  0  0
   23.9580    0.2090   32.0050 H   0  0  0  0  0  0  0  0  0  0  0  0
  1  2  1  0  0  0  0
  1 30  1  0  0  0  0
  1 31  1  0  0  0  0
  1 32  1  0  0  0  0
  2  3  1  0  0  0  0
  2 33  1  0  0  0  0
  2 34  1  0  0  0  0
  3  4  1  0  0  0  0
  4 10  2  0  0  0  0
  4  5  1  0  0  0  0
  5  6  2  0  0  0  0
  6  7  1  0  0  0  0
  6 13  1  0  0  0  0
  7  8  2  0  0  0  0
  7 35  1  0  0  0  0
  8  9  1  0  0  0  0
  8 10  1  0  0  0  0
  9 36  1  0  0  0  0
  9 37  1  0  0  0  0
 10 11  1  0  0  0  0
 11 12  3  0  0  0  0
 13 14  1  0  0  0  0
 13 38  1  0  0  0  0
 14 15  2  0  0  0  0
 14 16  1  0  0  0  0
 16 17  1  0  0  0  0
 16 39  1  0  0  0  0
 16 40  1  0  0  0  0
 17 27  2  0  0  0  0
 17 18  1  0  0  0  0
 18 19  1  0  0  0  0
 18 21  2  0  0  0  0
 19 20  1  0  0  0  0
 20 41  1  0  0  0  0
 20 42  1  0  0  0  0
 20 43  1  0  0  0  0
 21 22  1  0  0  0  0
 21 44  1  0  0  0  0
 22 23  1  0  0  0  0
 22 26  2  0  0  0  0
 23 24  1  0  0  0  0
 23 25  2  0  0  0  0
 26 27  1  0  0  0  0
 26 28  1  0  0  0  0
 27 45  1  0  0  0  0
 28 29  1  0  0  0  0
 29 46  1  0  0  0  0
 29 47  1  0  0  0  0
 29 48  1  0  0  0  0
M  CHG  2  23   1  24  -1
M  END
$$$$
