p38a_3flq
 OpenBabel02232411163D
Structure written by MMmdl.
 47 49  0  0  1  0  0  0  0  0999 V2000
   33.6480   39.1190   23.8210 C   0  0  0  0  0  0  0  0  0  0  0  0
   34.5630   37.9630   21.4800 C   0  0  0  0  0  0  0  0  0  0  0  0
   35.0590   37.3240   20.2890 C   0  0  0  0  0  0  0  0  0  0  0  0
   34.0040   37.1820   22.5340 C   0  0  0  0  0  0  0  0  0  0  0  0
   35.0000   35.9760   20.2040 C   0  0  0  0  0  0  0  0  0  0  0  0
   32.1630   39.4070   25.9220 C   0  0  1  0  0  0  0  0  0  0  0  0
   31.7050   37.9560   25.8620 C   0  0  0  0  0  0  0  0  0  0  0  0
   35.3230   39.7300   27.3620 C   0  0  0  0  0  0  0  0  0  0  0  0
   33.9180   35.7870   22.4130 N   0  0  0  0  0  0  0  0  0  0  0  0
   32.5240   39.8580   27.3560 C   0  0  0  0  0  0  0  0  0  0  0  0
   38.3000   37.1520   14.9420 F   0  0  0  0  0  0  0  0  0  0  0  0
   37.6120   36.6770   15.9770 C   0  0  0  0  0  0  0  0  0  0  0  0
   36.2580   36.3830   15.7950 C   0  0  0  0  0  0  0  0  0  0  0  0
   35.5080   35.9380   16.8890 C   0  0  0  0  0  0  0  0  0  0  0  0
   38.2760   36.5340   17.2030 C   0  0  0  0  0  0  0  0  0  0  0  0
   37.5050   36.0990   18.2780 C   0  0  0  0  0  0  0  0  0  0  0  0
   38.0550   35.9700   19.4770 F   0  0  0  0  0  0  0  0  0  0  0  0
   36.1390   35.7860   18.1270 C   0  0  0  0  0  0  0  0  0  0  0  0
   35.4420   35.1590   19.1690 O   0  0  0  0  0  0  0  0  0  0  0  0
   34.4040   35.0950   21.2500 C   0  0  0  0  0  0  0  0  0  0  0  0
   34.3140   33.8890   21.1810 O   0  0  0  0  0  0  0  0  0  0  0  0
   34.6030   39.3660   21.6830 C   0  0  0  0  0  0  0  0  0  0  0  0
   34.1720   39.9510   22.8130 N   0  0  0  0  0  0  0  0  0  0  0  0
   33.5460   37.7570   23.6970 N   0  0  0  0  0  0  0  0  0  0  0  0
   33.2900   35.0040   23.5140 C   0  0  0  0  0  0  0  0  0  0  0  0
   33.3290   39.7510   25.0250 N   0  0  0  0  0  0  0  0  0  0  0  0
   33.9080   39.1140   28.1590 S   0  0  0  0  0  0  0  0  0  0  0  0
   33.9130   39.5410   29.5860 O   0  0  0  0  0  0  0  0  0  0  0  0
   33.8690   37.6410   28.0860 O   0  0  0  0  0  0  0  0  0  0  0  0
   35.4690   37.9570   19.4980 H   0  0  0  0  0  0  0  0  0  0  0  0
   31.2990   40.0600   25.5820 H   0  0  0  0  0  0  0  0  0  0  0  0
   31.2600   37.7260   24.8660 H   0  0  0  0  0  0  0  0  0  0  0  0
   32.5520   37.2500   26.0440 H   0  0  0  0  0  0  0  0  0  0  0  0
   30.9180   37.7820   26.6330 H   0  0  0  0  0  0  0  0  0  0  0  0
   36.2480   39.6170   27.9840 H   0  0  0  0  0  0  0  0  0  0  0  0
   35.5060   39.2240   26.3780 H   0  0  0  0  0  0  0  0  0  0  0  0
   35.2270   40.8290   27.1370 H   0  0  0  0  0  0  0  0  0  0  0  0
   32.6740   40.9750   27.3460 H   0  0  0  0  0  0  0  0  0  0  0  0
   31.6060   39.6770   27.9830 H   0  0  0  0  0  0  0  0  0  0  0  0
   35.7760   36.5100   14.8220 H   0  0  0  0  0  0  0  0  0  0  0  0
   34.4400   35.7270   16.7680 H   0  0  0  0  0  0  0  0  0  0  0  0
   39.3340   36.7900   17.3180 H   0  0  0  0  0  0  0  0  0  0  0  0
   34.9870   40.0280   20.8900 H   0  0  0  0  0  0  0  0  0  0  0  0
   33.3050   33.9100   23.2700 H   0  0  0  0  0  0  0  0  0  0  0  0
   33.8460   35.1790   24.4740 H   0  0  0  0  0  0  0  0  0  0  0  0
   32.2260   35.3370   23.6560 H   0  0  0  0  0  0  0  0  0  0  0  0
   33.4980   40.7860   25.0290 H   0  0  0  0  0  0  0  0  0  0  0  0
  1 23  2  0  0  0  0
  1 24  1  0  0  0  0
  1 26  1  0  0  0  0
  2  3  1  0  0  0  0
  2  4  1  0  0  0  0
  2 22  2  0  0  0  0
  3  5  2  0  0  0  0
  3 30  1  0  0  0  0
  4  9  1  0  0  0  0
  4 24  2  0  0  0  0
  5 19  1  0  0  0  0
  5 20  1  0  0  0  0
  6  7  1  0  0  0  0
  6 10  1  0  0  0  0
  6 26  1  0  0  0  0
  6 31  1  6  0  0  0
  7 32  1  0  0  0  0
  7 33  1  0  0  0  0
  7 34  1  0  0  0  0
  8 27  1  0  0  0  0
  8 35  1  0  0  0  0
  8 36  1  0  0  0  0
  8 37  1  0  0  0  0
  9 20  1  0  0  0  0
  9 25  1  0  0  0  0
 10 27  1  0  0  0  0
 10 38  1  0  0  0  0
 10 39  1  0  0  0  0
 11 12  1  0  0  0  0
 12 13  2  0  0  0  0
 12 15  1  0  0  0  0
 13 14  1  0  0  0  0
 13 40  1  0  0  0  0
 14 18  2  0  0  0  0
 14 41  1  0  0  0  0
 15 16  2  0  0  0  0
 15 42  1  0  0  0  0
 16 17  1  0  0  0  0
 16 18  1  0  0  0  0
 18 19  1  0  0  0  0
 20 21  2  0  0  0  0
 22 23  1  0  0  0  0
 22 43  1  0  0  0  0
 25 44  1  0  0  0  0
 25 45  1  0  0  0  0
 25 46  1  0  0  0  0
 26 47  1  0  0  0  0
 27 28  2  0  0  0  0
 27 29  2  0  0  0  0
M  END
$$$$
