47
 OpenBabel02232411163D
Structure written by MMmdl.
 43 46  0  0  0  0  0  0  0  0999 V2000
    3.9040  -50.1490    5.8510 O   0  0  0  0  0  0  0  0  0  0  0  0
    3.1890  -49.3340    6.4640 C   0  0  0  0  0  0  0  0  0  0  0  0
    3.5700  -48.3830    7.1600 O   0  5  0  0  0  0  0  0  0  0  0  0
    1.6730  -49.5800    6.3470 C   0  0  0  0  0  0  0  0  0  0  0  0
   -0.2390  -50.8270    6.5040 C   0  0  0  0  0  0  0  0  0  0  0  0
   -1.2040  -51.8220    6.7370 C   0  0  0  0  0  0  0  0  0  0  0  0
   -2.5190  -51.5220    6.4160 C   0  0  0  0  0  0  0  0  0  0  0  0
   -2.8740  -50.2660    5.8700 C   0  0  0  0  0  0  0  0  0  0  0  0
   -1.9260  -49.2780    5.6400 C   0  0  0  0  0  0  0  0  0  0  0  0
   -0.5830  -49.5360    5.9600 C   0  0  0  0  0  0  0  0  0  0  0  0
    0.6420  -48.7680    5.8850 C   0  0  0  0  0  0  0  0  0  0  0  0
    0.7110  -47.3610    5.4090 C   0  0  0  0  0  0  0  0  0  0  0  0
    0.7220  -46.3410    6.5630 C   0  0  0  0  0  0  0  0  0  0  0  0
   -0.5410  -46.3810    7.4170 C   0  0  0  0  0  0  0  0  0  0  0  0
   -1.5740  -45.7590    6.5640 O   0  0  0  0  0  0  0  0  0  0  0  0
   -2.8350  -45.6490    7.0610 C   0  0  0  0  0  0  0  0  0  0  0  0
   -4.5490  -46.0630    8.7280 C   0  0  0  0  0  0  0  0  0  0  0  0
   -3.2480  -46.1870    8.3260 C   0  0  0  0  0  0  0  0  0  0  0  0
   -0.9360  -52.7910    7.1590 H   0  0  0  0  0  0  0  0  0  0  0  0
   -3.3030  -52.2610    6.5870 H   0  0  0  0  0  0  0  0  0  0  0  0
   -3.9220  -50.0850    5.6260 H   0  0  0  0  0  0  0  0  0  0  0  0
   -2.2270  -48.3170    5.2200 H   0  0  0  0  0  0  0  0  0  0  0  0
   -0.1860  -47.1500    4.7720 H   0  0  0  0  0  0  0  0  0  0  0  0
    1.6290  -47.1960    4.7950 H   0  0  0  0  0  0  0  0  0  0  0  0
    1.5900  -46.5580    7.2340 H   0  0  0  0  0  0  0  0  0  0  0  0
    0.8200  -45.3150    6.1400 H   0  0  0  0  0  0  0  0  0  0  0  0
   -0.4550  -45.7410    8.3190 H   0  0  0  0  0  0  0  0  0  0  0  0
   -0.8750  -47.4180    7.6320 H   0  0  0  0  0  0  0  0  0  0  0  0
   -2.5440  -46.7110    8.9700 H   0  0  0  0  0  0  0  0  0  0  0  0
   -3.7290  -44.9770    6.2370 C   0  0  0  0  0  0  0  0  0  0  0  0
   -4.8900  -46.4770    9.6850 H   0  0  0  0  0  0  0  0  0  0  0  0
   -5.0830  -44.8540    6.6350 C   0  0  0  0  0  0  0  0  0  0  0  0
   -5.5060  -45.4130    7.8800 C   0  0  0  0  0  0  0  0  0  0  0  0
   -6.8360  -45.4260    8.2730 N   0  0  0  0  0  0  0  0  0  0  0  0
   -7.7430  -44.9370    7.4350 C   0  0  0  0  0  0  0  0  0  0  0  0
   -7.4020  -44.3260    6.1820 C   0  0  0  0  0  0  0  0  0  0  0  0
   -6.0890  -44.2690    5.7970 C   0  0  0  0  0  0  0  0  0  0  0  0
   -8.8000  -45.0260    7.7170 H   0  0  0  0  0  0  0  0  0  0  0  0
   -8.2030  -43.9380    5.5580 H   0  0  0  0  0  0  0  0  0  0  0  0
   -5.7940  -43.8070    4.8520 H   0  0  0  0  0  0  0  0  0  0  0  0
   -3.4150  -44.5740    5.2750 H   0  0  0  0  0  0  0  0  0  0  0  0
    1.1470  -50.8280    6.7300 N   0  0  0  0  0  0  0  0  0  0  0  0
    1.6520  -51.6260    7.0970 H   0  0  0  0  0  0  0  0  0  0  0  0
  1  2  2  0  0  0  0
  2  3  1  0  0  0  0
  2  4  1  0  0  0  0
  4 11  2  0  0  0  0
  4 42  1  0  0  0  0
  5  6  2  0  0  0  0
  5 10  1  0  0  0  0
  5 42  1  0  0  0  0
  6  7  1  0  0  0  0
  6 19  1  0  0  0  0
  7  8  2  0  0  0  0
  7 20  1  0  0  0  0
  8  9  1  0  0  0  0
  8 21  1  0  0  0  0
  9 10  2  0  0  0  0
  9 22  1  0  0  0  0
 10 11  1  0  0  0  0
 11 12  1  0  0  0  0
 12 23  1  0  0  0  0
 12 24  1  0  0  0  0
 12 13  1  0  0  0  0
 13 14  1  0  0  0  0
 13 25  1  0  0  0  0
 13 26  1  0  0  0  0
 14 15  1  0  0  0  0
 14 27  1  0  0  0  0
 14 28  1  0  0  0  0
 15 16  1  0  0  0  0
 16 18  2  0  0  0  0
 16 30  1  0  0  0  0
 17 18  1  0  0  0  0
 17 31  1  0  0  0  0
 17 33  2  0  0  0  0
 18 29  1  0  0  0  0
 30 32  2  0  0  0  0
 30 41  1  0  0  0  0
 32 33  1  0  0  0  0
 32 37  1  0  0  0  0
 33 34  1  0  0  0  0
 34 35  2  0  0  0  0
 35 36  1  0  0  0  0
 35 38  1  0  0  0  0
 36 37  2  0  0  0  0
 36 39  1  0  0  0  0
 37 40  1  0  0  0  0
 42 43  1  0  0  0  0
M  CHG  1   3  -1
M  END
$$$$
