ejm_48
 OpenBabel02232411173D
Structure written by MMmdl.
 42 44  0  0  0  0  0  0  0  0999 V2000
   -1.6600   21.5290  -27.6300 C   0  0  0  0  0  0  0  0  0  0  0  0
   -2.9520   21.0640  -27.8890 C   0  0  0  0  0  0  0  0  0  0  0  0
   -3.7110   21.6620  -28.8970 C   0  0  0  0  0  0  0  0  0  0  0  0
   -3.2180   22.7410  -29.6470 C   0  0  0  0  0  0  0  0  0  0  0  0
   -1.9250   23.1920  -29.3540 C   0  0  0  0  0  0  0  0  0  0  0  0
   -1.1400   22.5980  -28.3640 C   0  0  0  0  0  0  0  0  0  0  0  0
   -1.2580   24.5180  -30.2110 Cl  0  0  0  0  0  0  0  0  0  0  0  0
   -4.0650   23.3170  -30.7460 C   0  0  0  0  0  0  0  0  0  0  0  0
   -4.4910   22.6460  -31.6600 O   0  0  0  0  0  0  0  0  0  0  0  0
   -4.3350   24.6930  -30.5860 N   0  0  0  0  0  0  0  0  0  0  0  0
   -5.1350   25.5090  -31.4360 C   0  0  0  0  0  0  0  0  0  0  0  0
   -5.8130   25.0240  -32.5640 C   0  0  0  0  0  0  0  0  0  0  0  0
   -6.6100   25.9150  -33.2960 C   0  0  0  0  0  0  0  0  0  0  0  0
   -6.7500   27.2290  -32.9850 N   0  0  0  0  0  0  0  0  0  0  0  0
   -6.0680   27.6970  -31.8780 C   0  0  0  0  0  0  0  0  0  0  0  0
   -5.2540   26.8720  -31.0880 C   0  0  0  0  0  0  0  0  0  0  0  0
   -6.2870   29.0760  -31.5840 N   0  0  0  0  0  0  0  0  0  0  0  0
   -5.4940   29.8700  -30.7120 C   0  0  0  0  0  0  0  0  0  0  0  0
   -4.5460   29.3820  -30.1250 O   0  0  0  0  0  0  0  0  0  0  0  0
   -5.2770   21.0500  -29.2300 Cl  0  0  0  0  0  0  0  0  0  0  0  0
   -1.0530   21.0590  -26.8480 H   0  0  0  0  0  0  0  0  0  0  0  0
   -3.3540   20.2460  -27.2890 H   0  0  0  0  0  0  0  0  0  0  0  0
   -0.1310   22.9620  -28.1470 H   0  0  0  0  0  0  0  0  0  0  0  0
   -3.9110   25.1710  -29.7690 H   0  0  0  0  0  0  0  0  0  0  0  0
   -5.7510   23.9760  -32.8710 H   0  0  0  0  0  0  0  0  0  0  0  0
   -7.1720   25.5580  -34.1760 H   0  0  0  0  0  0  0  0  0  0  0  0
   -4.7170   27.2770  -30.2230 H   0  0  0  0  0  0  0  0  0  0  0  0
   -7.1480   29.4900  -32.0060 H   0  0  0  0  0  0  0  0  0  0  0  0
   -7.0270   31.4290  -30.7480 H   0  0  0  0  0  0  0  0  0  0  0  0
   -5.9280   31.3260  -30.5730 C   0  0  0  0  0  0  0  0  0  0  0  0
   -5.5860   31.8730  -29.1630 C   0  0  0  0  0  0  0  0  0  0  0  0
   -5.0230   33.2900  -29.3750 C   0  0  0  0  0  0  0  0  0  0  0  0
   -4.4020   33.2880  -30.7840 C   0  0  0  0  0  0  0  0  0  0  0  0
   -5.1770   32.2260  -31.5910 C   0  0  0  0  0  0  0  0  0  0  0  0
   -4.8150   31.2360  -28.6700 H   0  0  0  0  0  0  0  0  0  0  0  0
   -6.4910   31.9150  -28.5210 H   0  0  0  0  0  0  0  0  0  0  0  0
   -5.8500   34.0380  -29.3250 H   0  0  0  0  0  0  0  0  0  0  0  0
   -4.2710   33.5490  -28.5980 H   0  0  0  0  0  0  0  0  0  0  0  0
   -4.5010   34.2960  -31.2440 H   0  0  0  0  0  0  0  0  0  0  0  0
   -3.3220   33.0230  -30.7230 H   0  0  0  0  0  0  0  0  0  0  0  0
   -4.4880   31.6330  -32.2260 H   0  0  0  0  0  0  0  0  0  0  0  0
   -5.9380   32.7290  -32.2320 H   0  0  0  0  0  0  0  0  0  0  0  0
  1  2  2  0  0  0  0
  1  6  1  0  0  0  0
  1 21  1  0  0  0  0
  2  3  1  0  0  0  0
  2 22  1  0  0  0  0
  3  4  2  0  0  0  0
  3 20  1  0  0  0  0
  4  5  1  0  0  0  0
  4  8  1  0  0  0  0
  5  6  2  0  0  0  0
  5  7  1  0  0  0  0
  6 23  1  0  0  0  0
  8  9  2  0  0  0  0
  8 10  1  0  0  0  0
 10 11  1  0  0  0  0
 10 24  1  0  0  0  0
 11 12  2  0  0  0  0
 11 16  1  0  0  0  0
 12 13  1  0  0  0  0
 12 25  1  0  0  0  0
 13 14  2  0  0  0  0
 13 26  1  0  0  0  0
 14 15  1  0  0  0  0
 15 16  2  0  0  0  0
 15 17  1  0  0  0  0
 16 27  1  0  0  0  0
 17 18  1  0  0  0  0
 17 28  1  0  0  0  0
 18 19  2  0  0  0  0
 18 30  1  0  0  0  0
 29 30  1  0  0  0  0
 30 31  1  0  0  0  0
 30 34  1  0  0  0  0
 31 32  1  0  0  0  0
 31 35  1  0  0  0  0
 31 36  1  0  0  0  0
 32 33  1  0  0  0  0
 32 37  1  0  0  0  0
 32 38  1  0  0  0  0
 33 34  1  0  0  0  0
 33 39  1  0  0  0  0
 33 40  1  0  0  0  0
 34 41  1  0  0  0  0
 34 42  1  0  0  0  0
M  END
$$$$
