18631-1
 OpenBabel02232411163D
Structure written by MMmdl.
 42 43  0  0  0  0  0  0  0  0999 V2000
   23.8310   12.6370   30.3340 C   0  0  0  0  0  0  0  0  0  0  0  0
   23.4000   11.1870   30.4530 C   0  0  0  0  0  0  0  0  0  0  0  0
   22.1460   11.2750   31.2430 O   0  0  0  0  0  0  0  0  0  0  0  0
   21.5130   10.1310   31.5810 C   0  0  0  0  0  0  0  0  0  0  0  0
   21.9900    8.9460   31.1360 N   0  0  0  0  0  0  0  0  0  0  0  0
   21.2620    7.8050   31.4500 C   0  0  0  0  0  0  0  0  0  0  0  0
   20.1090    7.8420   32.2290 C   0  0  0  0  0  0  0  0  0  0  0  0
   19.6240    9.0900   32.7020 C   0  0  0  0  0  0  0  0  0  0  0  0
   18.4810    9.1320   33.4600 N   0  0  0  0  0  0  0  0  0  0  0  0
   20.3300   10.2890   32.3640 C   0  0  0  0  0  0  0  0  0  0  0  0
   19.9110   11.5870   32.7220 C   0  0  0  0  0  0  0  0  0  0  0  0
   19.6110   12.6790   32.9740 N   0  0  0  0  0  0  0  0  0  0  0  0
   21.8240    6.6460   30.8720 N   0  0  0  0  0  0  0  0  0  0  0  0
   21.2350    5.3590   30.8090 C   0  0  0  0  0  0  0  0  0  0  0  0
   20.1700    5.1030   31.3300 O   0  0  0  0  0  0  0  0  0  0  0  0
   22.0300    4.3690   29.9680 C   0  0  0  0  0  0  0  0  0  0  0  0
   23.3390    3.9960   30.5960 C   0  0  0  0  0  0  0  0  0  0  0  0
   24.4950    4.7980   30.3920 C   0  0  0  0  0  0  0  0  0  0  0  0
   24.2590    5.8800   29.5610 O   0  0  0  0  0  0  0  0  0  0  0  0
   25.3210    6.8560   29.3870 C   0  0  0  0  0  0  0  0  0  0  0  0
   25.7240    4.4830   30.9710 C   0  0  0  0  0  0  0  0  0  0  0  0
   25.8180    3.3370   31.7710 C   0  0  0  0  0  0  0  0  0  0  0  0
   24.7040    2.5230   31.9690 C   0  0  0  0  0  0  0  0  0  0  0  0
   23.4750    2.8470   31.3780 C   0  0  0  0  0  0  0  0  0  0  0  0
   24.0410   13.0830   31.3320 H   0  0  0  0  0  0  0  0  0  0  0  0
   23.0480   13.2470   29.8250 H   0  0  0  0  0  0  0  0  0  0  0  0
   24.7630   12.6840   29.7160 H   0  0  0  0  0  0  0  0  0  0  0  0
   23.1490   10.7360   29.4670 H   0  0  0  0  0  0  0  0  0  0  0  0
   24.1290   10.5700   31.0240 H   0  0  0  0  0  0  0  0  0  0  0  0
   19.5590    6.9290   32.4680 H   0  0  0  0  0  0  0  0  0  0  0  0
   17.9800    8.2620   33.7230 H   0  0  0  0  0  0  0  0  0  0  0  0
   18.0820   10.0180   33.7710 H   0  0  0  0  0  0  0  0  0  0  0  0
   22.7470    6.7880   30.3920 H   0  0  0  0  0  0  0  0  0  0  0  0
   21.4080    3.4490   29.8190 H   0  0  0  0  0  0  0  0  0  0  0  0
   22.2230    4.8340   28.9630 H   0  0  0  0  0  0  0  0  0  0  0  0
   25.6160    7.2820   30.3700 H   0  0  0  0  0  0  0  0  0  0  0  0
   26.1780    6.3870   28.8600 H   0  0  0  0  0  0  0  0  0  0  0  0
   24.8180    7.6200   28.7500 H   0  0  0  0  0  0  0  0  0  0  0  0
   26.6110    5.0970   30.8140 H   0  0  0  0  0  0  0  0  0  0  0  0
   26.7770    3.0810   32.2330 H   0  0  0  0  0  0  0  0  0  0  0  0
   24.7900    1.6230   32.5840 H   0  0  0  0  0  0  0  0  0  0  0  0
   22.6220    2.1810   31.5410 H   0  0  0  0  0  0  0  0  0  0  0  0
  1  2  1  0  0  0  0
  1 25  1  0  0  0  0
  1 26  1  0  0  0  0
  1 27  1  0  0  0  0
  2  3  1  0  0  0  0
  2 28  1  0  0  0  0
  2 29  1  0  0  0  0
  3  4  1  0  0  0  0
  4 10  2  0  0  0  0
  4  5  1  0  0  0  0
  5  6  2  0  0  0  0
  6  7  1  0  0  0  0
  6 13  1  0  0  0  0
  7  8  2  0  0  0  0
  7 30  1  0  0  0  0
  8  9  1  0  0  0  0
  8 10  1  0  0  0  0
  9 31  1  0  0  0  0
  9 32  1  0  0  0  0
 10 11  1  0  0  0  0
 11 12  3  0  0  0  0
 13 14  1  0  0  0  0
 13 33  1  0  0  0  0
 14 15  2  0  0  0  0
 14 16  1  0  0  0  0
 16 17  1  0  0  0  0
 16 34  1  0  0  0  0
 16 35  1  0  0  0  0
 17 24  2  0  0  0  0
 17 18  1  0  0  0  0
 18 19  1  0  0  0  0
 18 21  2  0  0  0  0
 19 20  1  0  0  0  0
 20 36  1  0  0  0  0
 20 37  1  0  0  0  0
 20 38  1  0  0  0  0
 21 22  1  0  0  0  0
 21 39  1  0  0  0  0
 22 23  2  0  0  0  0
 22 40  1  0  0  0  0
 23 24  1  0  0  0  0
 23 41  1  0  0  0  0
 24 42  1  0  0  0  0
M  END
$$$$
