18628-1
 OpenBabel02232411163D
Structure written by MMmdl.
 41 42  0  0  0  0  0  0  0  0999 V2000
   23.8380   12.6460   30.3550 C   0  0  0  0  0  0  0  0  0  0  0  0
   23.4160   11.1930   30.4590 C   0  0  0  0  0  0  0  0  0  0  0  0
   22.1690   11.2680   31.2630 O   0  0  0  0  0  0  0  0  0  0  0  0
   21.5430   10.1240   31.6040 C   0  0  0  0  0  0  0  0  0  0  0  0
   22.0310    8.9350   31.1740 N   0  0  0  0  0  0  0  0  0  0  0  0
   21.3170    7.7940   31.5120 C   0  0  0  0  0  0  0  0  0  0  0  0
   20.1600    7.8310   32.2830 C   0  0  0  0  0  0  0  0  0  0  0  0
   19.6550    9.0820   32.7290 C   0  0  0  0  0  0  0  0  0  0  0  0
   18.4990    9.1280   33.4660 N   0  0  0  0  0  0  0  0  0  0  0  0
   20.3570   10.2800   32.3830 C   0  0  0  0  0  0  0  0  0  0  0  0
   19.9290   11.5790   32.7290 C   0  0  0  0  0  0  0  0  0  0  0  0
   19.6250   12.6720   32.9690 N   0  0  0  0  0  0  0  0  0  0  0  0
   21.9070    6.6260   30.9720 N   0  0  0  0  0  0  0  0  0  0  0  0
   21.4120    5.3030   31.0700 C   0  0  0  0  0  0  0  0  0  0  0  0
   20.3540    5.0450   31.6070 O   0  0  0  0  0  0  0  0  0  0  0  0
   22.2670    4.2490   30.3880 C   0  0  0  0  0  0  0  0  0  0  0  0
   23.7540    4.4560   30.4950 C   0  0  0  0  0  0  0  0  0  0  0  0
   24.4930    3.9830   31.6010 C   0  0  0  0  0  0  0  0  0  0  0  0
   23.8300    3.3290   32.7720 C   0  0  0  0  0  0  0  0  0  0  0  0
   25.8910    4.1390   31.6040 C   0  0  0  0  0  0  0  0  0  0  0  0
   26.5460    4.7780   30.5510 C   0  0  0  0  0  0  0  0  0  0  0  0
   25.8070    5.2830   29.4770 C   0  0  0  0  0  0  0  0  0  0  0  0
   24.4220    5.1210   29.4530 C   0  0  0  0  0  0  0  0  0  0  0  0
   24.0830   13.0720   31.3540 H   0  0  0  0  0  0  0  0  0  0  0  0
   24.7470   12.7110   29.7060 H   0  0  0  0  0  0  0  0  0  0  0  0
   23.0350   13.2640   29.8880 H   0  0  0  0  0  0  0  0  0  0  0  0
   23.1530   10.7530   29.4700 H   0  0  0  0  0  0  0  0  0  0  0  0
   24.1520   10.5710   31.0150 H   0  0  0  0  0  0  0  0  0  0  0  0
   19.6200    6.9150   32.5380 H   0  0  0  0  0  0  0  0  0  0  0  0
   18.0940   10.0140   33.7660 H   0  0  0  0  0  0  0  0  0  0  0  0
   17.9970    8.2580   33.7320 H   0  0  0  0  0  0  0  0  0  0  0  0
   22.7960    6.7810   30.4580 H   0  0  0  0  0  0  0  0  0  0  0  0
   22.0070    3.2460   30.8290 H   0  0  0  0  0  0  0  0  0  0  0  0
   21.9570    4.2250   29.3090 H   0  0  0  0  0  0  0  0  0  0  0  0
   23.3900    2.3450   32.4730 H   0  0  0  0  0  0  0  0  0  0  0  0
   24.5620    3.1260   33.5930 H   0  0  0  0  0  0  0  0  0  0  0  0
   23.0260    3.9820   33.1820 H   0  0  0  0  0  0  0  0  0  0  0  0
   26.4800    3.7530   32.4400 H   0  0  0  0  0  0  0  0  0  0  0  0
   27.6340    4.8890   30.5680 H   0  0  0  0  0  0  0  0  0  0  0  0
   26.3140    5.8050   28.6620 H   0  0  0  0  0  0  0  0  0  0  0  0
   23.8590    5.5350   28.6160 H   0  0  0  0  0  0  0  0  0  0  0  0
  1  2  1  0  0  0  0
  1 24  1  0  0  0  0
  1 25  1  0  0  0  0
  1 26  1  0  0  0  0
  2  3  1  0  0  0  0
  2 27  1  0  0  0  0
  2 28  1  0  0  0  0
  3  4  1  0  0  0  0
  4 10  2  0  0  0  0
  4  5  1  0  0  0  0
  5  6  2  0  0  0  0
  6  7  1  0  0  0  0
  6 13  1  0  0  0  0
  7  8  2  0  0  0  0
  7 29  1  0  0  0  0
  8  9  1  0  0  0  0
  8 10  1  0  0  0  0
  9 30  1  0  0  0  0
  9 31  1  0  0  0  0
 10 11  1  0  0  0  0
 11 12  3  0  0  0  0
 13 14  1  0  0  0  0
 13 32  1  0  0  0  0
 14 15  2  0  0  0  0
 14 16  1  0  0  0  0
 16 17  1  0  0  0  0
 16 33  1  0  0  0  0
 16 34  1  0  0  0  0
 17 23  2  0  0  0  0
 17 18  1  0  0  0  0
 18 19  1  0  0  0  0
 18 20  2  0  0  0  0
 19 35  1  0  0  0  0
 19 36  1  0  0  0  0
 19 37  1  0  0  0  0
 20 21  1  0  0  0  0
 20 38  1  0  0  0  0
 21 22  2  0  0  0  0
 21 39  1  0  0  0  0
 22 23  1  0  0  0  0
 22 40  1  0  0  0  0
 23 41  1  0  0  0  0
M  END
$$$$
