p38a_2p
 OpenBabel02232411163D
Structure written by MMmdl.
 58 61  0  0  0  0  0  0  0  0999 V2000
   38.2530   36.4910   17.2380 C   0  0  0  0  0  0  0  0  0  0  0  0
   34.4690   35.1700   21.3570 C   0  0  0  0  0  0  0  0  0  0  0  0
   37.4800   36.0610   18.3130 C   0  0  0  0  0  0  0  0  0  0  0  0
   33.9740   39.3240   23.7860 C   0  0  0  0  0  0  0  0  0  0  0  0
   34.6290   38.0480   21.4320 C   0  0  0  0  0  0  0  0  0  0  0  0
   35.0520   37.3490   20.2480 C   0  0  0  0  0  0  0  0  0  0  0  0
   37.5920   36.6230   16.0090 C   0  0  0  0  0  0  0  0  0  0  0  0
   36.2400   36.3190   15.8250 C   0  0  0  0  0  0  0  0  0  0  0  0
   35.4890   35.8800   16.9200 C   0  0  0  0  0  0  0  0  0  0  0  0
   34.2120   37.3150   22.5810 C   0  0  0  0  0  0  0  0  0  0  0  0
   34.6210   39.4640   21.5380 C   0  0  0  0  0  0  0  0  0  0  0  0
   35.0080   35.9970   20.2420 C   0  0  0  0  0  0  0  0  0  0  0  0
   36.1140   35.7410   18.1630 C   0  0  0  0  0  0  0  0  0  0  0  0
   38.0280   35.9480   19.5160 F   0  0  0  0  0  0  0  0  0  0  0  0
   35.4060   35.1430   19.2150 O   0  0  0  0  0  0  0  0  0  0  0  0
   34.3110   40.1150   22.6700 N   0  0  0  0  0  0  0  0  0  0  0  0
   34.3040   33.9700   21.3240 O   0  0  0  0  0  0  0  0  0  0  0  0
   34.1050   35.9120   22.5360 N   0  0  0  0  0  0  0  0  0  0  0  0
   33.8940   37.9480   23.7550 N   0  0  0  0  0  0  0  0  0  0  0  0
   33.6330   39.9730   24.9560 N   0  0  0  0  0  0  0  0  0  0  0  0
   39.3090   36.7510   17.3550 H   0  0  0  0  0  0  0  0  0  0  0  0
   35.4050   37.9380   19.4000 H   0  0  0  0  0  0  0  0  0  0  0  0
   35.7610   36.4370   14.8500 H   0  0  0  0  0  0  0  0  0  0  0  0
   34.4220   35.6640   16.7990 H   0  0  0  0  0  0  0  0  0  0  0  0
   34.8760   40.0780   20.6580 H   0  0  0  0  0  0  0  0  0  0  0  0
   33.8080   40.9930   25.0400 H   0  0  0  0  0  0  0  0  0  0  0  0
   38.2800   37.0990   14.9740 F   0  0  0  0  0  0  0  0  0  0  0  0
   32.5610   39.3230   28.5630 C   0  0  0  0  0  0  0  0  0  0  0  0
   32.5550   39.9620   27.1690 C   0  0  0  0  0  0  0  0  0  0  0  0
   33.5680   39.2390   26.2570 C   0  0  0  0  0  0  0  0  0  0  0  0
   34.9620   39.1970   26.9210 C   0  0  0  0  0  0  0  0  0  0  0  0
   34.8550   38.6140   28.3360 C   0  0  0  0  0  0  0  0  0  0  0  0
   33.8880   39.3260   29.1400 O   0  0  0  0  0  0  0  0  0  0  0  0
   32.1870   38.2750   28.5240 H   0  0  0  0  0  0  0  0  0  0  0  0
   31.9880   39.9410   29.2920 H   0  0  0  0  0  0  0  0  0  0  0  0
   32.8280   41.0400   27.2570 H   0  0  0  0  0  0  0  0  0  0  0  0
   31.5350   39.8890   26.7220 H   0  0  0  0  0  0  0  0  0  0  0  0
   33.2130   38.1890   26.0660 H   0  0  0  0  0  0  0  0  0  0  0  0
   35.6470   38.5580   26.3160 H   0  0  0  0  0  0  0  0  0  0  0  0
   35.3870   40.2290   26.9710 H   0  0  0  0  0  0  0  0  0  0  0  0
   34.5730   37.5360   28.2990 H   0  0  0  0  0  0  0  0  0  0  0  0
   35.8000   38.7670   28.9060 H   0  0  0  0  0  0  0  0  0  0  0  0
   33.5320   35.1880   23.7200 C   0  0  0  0  0  0  0  0  0  0  0  0
   32.6430   35.7770   24.0810 H   0  0  0  0  0  0  0  0  0  0  0  0
   33.1920   34.1710   23.3780 H   0  0  0  0  0  0  0  0  0  0  0  0
   34.5500   35.0380   24.8690 C   0  0  0  0  0  0  0  0  0  0  0  0
   35.2050   34.1500   24.7010 H   0  0  0  0  0  0  0  0  0  0  0  0
   35.2170   35.9430   24.8990 H   0  0  0  0  0  0  0  0  0  0  0  0
   33.8690   34.9470   26.2420 C   0  0  0  0  0  0  0  0  0  0  0  0
   33.2170   35.8530   26.3810 H   0  0  0  0  0  0  0  0  0  0  0  0
   34.6730   35.0350   27.0300 H   0  0  0  0  0  0  0  0  0  0  0  0
   32.9410   33.4840   26.5490 S   0  0  0  0  0  0  0  0  0  0  0  0
   32.1550   33.0790   25.3610 O   0  0  0  0  0  0  0  0  0  0  0  0
   32.0410   33.6640   27.7180 O   0  0  0  0  0  0  0  0  0  0  0  0
   34.1420   32.2810   26.9180 C   0  0  0  0  0  0  0  0  0  0  0  0
   34.7310   32.5650   27.8300 H   0  0  0  0  0  0  0  0  0  0  0  0
   33.6870   31.2780   27.1300 H   0  0  0  0  0  0  0  0  0  0  0  0
   34.8690   32.1280   26.0830 H   0  0  0  0  0  0  0  0  0  0  0  0
  1  3  2  0  0  0  0
  1  7  1  0  0  0  0
  1 21  1  0  0  0  0
  2 12  1  0  0  0  0
  2 17  2  0  0  0  0
  2 18  1  0  0  0  0
  3 13  1  0  0  0  0
  3 14  1  0  0  0  0
  4 16  2  0  0  0  0
  4 19  1  0  0  0  0
  4 20  1  0  0  0  0
  5  6  1  0  0  0  0
  5 10  1  0  0  0  0
  5 11  2  0  0  0  0
  6 12  2  0  0  0  0
  6 22  1  0  0  0  0
  7  8  2  0  0  0  0
  7 27  1  0  0  0  0
  8  9  1  0  0  0  0
  8 23  1  0  0  0  0
  9 13  2  0  0  0  0
  9 24  1  0  0  0  0
 10 18  1  0  0  0  0
 10 19  2  0  0  0  0
 11 16  1  0  0  0  0
 11 25  1  0  0  0  0
 12 15  1  0  0  0  0
 13 15  1  0  0  0  0
 18 43  1  0  0  0  0
 20 26  1  0  0  0  0
 20 30  1  0  0  0  0
 28 29  1  0  0  0  0
 28 33  1  0  0  0  0
 28 34  1  0  0  0  0
 28 35  1  0  0  0  0
 29 30  1  0  0  0  0
 29 36  1  0  0  0  0
 29 37  1  0  0  0  0
 30 31  1  0  0  0  0
 30 38  1  0  0  0  0
 31 32  1  0  0  0  0
 31 39  1  0  0  0  0
 31 40  1  0  0  0  0
 32 33  1  0  0  0  0
 32 41  1  0  0  0  0
 32 42  1  0  0  0  0
 43 44  1  0  0  0  0
 43 45  1  0  0  0  0
 43 46  1  0  0  0  0
 46 47  1  0  0  0  0
 46 48  1  0  0  0  0
 46 49  1  0  0  0  0
 49 50  1  0  0  0  0
 49 51  1  0  0  0  0
 49 52  1  0  0  0  0
 52 53  2  0  0  0  0
 52 54  2  0  0  0  0
 52 55  1  0  0  0  0
 55 56  1  0  0  0  0
 55 57  1  0  0  0  0
 55 58  1  0  0  0  0
M  END
$$$$
