18652-1
 OpenBabel02232411163D
Structure written by MMmdl.
 55 56  0  0  0  0  0  0  0  0999 V2000
   23.1930   10.5080   28.9650 C   0  0  0  0  0  0  0  0  0  0  0  0
   23.5540   10.9570   30.3700 C   0  0  0  0  0  0  0  0  0  0  0  0
   24.0670   12.3910   30.4310 C   0  0  0  0  0  0  0  0  0  0  0  0
   22.3100   11.0550   31.2040 O   0  0  0  0  0  0  0  0  0  0  0  0
   21.6770    9.9360   31.6020 C   0  0  0  0  0  0  0  0  0  0  0  0
   22.1540    8.7230   31.2250 N   0  0  0  0  0  0  0  0  0  0  0  0
   21.4090    7.6090   31.5670 C   0  0  0  0  0  0  0  0  0  0  0  0
   20.2420    7.6840   32.3210 C   0  0  0  0  0  0  0  0  0  0  0  0
   19.7630    8.9540   32.7420 C   0  0  0  0  0  0  0  0  0  0  0  0
   18.5960    9.0290   33.4610 N   0  0  0  0  0  0  0  0  0  0  0  0
   20.4960   10.1290   32.3830 C   0  0  0  0  0  0  0  0  0  0  0  0
   20.1040   11.4410   32.7250 C   0  0  0  0  0  0  0  0  0  0  0  0
   19.8280   12.5400   32.9720 N   0  0  0  0  0  0  0  0  0  0  0  0
   21.9540    6.4130   31.0330 N   0  0  0  0  0  0  0  0  0  0  0  0
   21.2630    5.1880   30.9200 C   0  0  0  0  0  0  0  0  0  0  0  0
   20.1800    4.9950   31.4320 O   0  0  0  0  0  0  0  0  0  0  0  0
   21.9470    4.1660   30.0260 C   0  0  0  0  0  0  0  0  0  0  0  0
   23.3140    3.7290   30.4610 C   0  0  0  0  0  0  0  0  0  0  0  0
   24.4690    4.4230   29.9910 C   0  0  0  0  0  0  0  0  0  0  0  0
   24.1520    5.5510   29.2410 O   0  0  0  0  0  0  0  0  0  0  0  0
   25.1950    6.5500   29.0800 C   0  0  0  0  0  0  0  0  0  0  0  0
   25.7520    3.9410   30.2260 C   0  0  0  0  0  0  0  0  0  0  0  0
   25.9430    2.7820   31.0020 C   0  0  0  0  0  0  0  0  0  0  0  0
   27.5770    2.1660   31.1620 S   0  0  0  0  0  0  0  0  0  0  0  0
   27.6520    1.3100   32.3690 O   0  0  0  0  0  0  0  0  0  0  0  0
   28.5460    3.2860   31.2510 O   0  0  0  0  0  0  0  0  0  0  0  0
   27.8190    1.2420   29.7140 C   0  0  0  0  0  0  0  0  0  0  0  0
   24.8140    2.1510   31.5440 C   0  0  0  0  0  0  0  0  0  0  0  0
   23.5020    2.6050   31.2470 C   0  0  0  0  0  0  0  0  0  0  0  0
   25.0780    1.1010   32.3860 O   0  0  0  0  0  0  0  0  0  0  0  0
   23.9770    0.2150   32.7360 C   0  0  0  0  0  0  0  0  0  0  0  0
   22.7870    9.4700   28.9620 H   0  0  0  0  0  0  0  0  0  0  0  0
   22.4450   11.1890   28.5010 H   0  0  0  0  0  0  0  0  0  0  0  0
   24.1110   10.5220   28.3280 H   0  0  0  0  0  0  0  0  0  0  0  0
   24.2390   10.2400   30.8780 H   0  0  0  0  0  0  0  0  0  0  0  0
   24.3450   12.6780   31.4670 H   0  0  0  0  0  0  0  0  0  0  0  0
   24.9720   12.4760   29.7800 H   0  0  0  0  0  0  0  0  0  0  0  0
   23.3010   13.1070   30.0520 H   0  0  0  0  0  0  0  0  0  0  0  0
   19.6740    6.7870   32.5760 H   0  0  0  0  0  0  0  0  0  0  0  0
   18.0860    8.1710   33.7450 H   0  0  0  0  0  0  0  0  0  0  0  0
   18.2030    9.9260   33.7480 H   0  0  0  0  0  0  0  0  0  0  0  0
   22.8690    6.5090   30.5330 H   0  0  0  0  0  0  0  0  0  0  0  0
   21.2860    3.2630   29.9540 H   0  0  0  0  0  0  0  0  0  0  0  0
   22.0270    4.6290   29.0000 H   0  0  0  0  0  0  0  0  0  0  0  0
   25.9260    6.1920   28.3240 H   0  0  0  0  0  0  0  0  0  0  0  0
   24.6120    7.4240   28.7070 H   0  0  0  0  0  0  0  0  0  0  0  0
   25.6770    6.7750   30.0560 H   0  0  0  0  0  0  0  0  0  0  0  0
   26.6120    4.4570   29.7830 H   0  0  0  0  0  0  0  0  0  0  0  0
   27.7720    1.8820   28.7930 H   0  0  0  0  0  0  0  0  0  0  0  0
   28.8140    0.7260   29.6900 H   0  0  0  0  0  0  0  0  0  0  0  0
   27.0400    0.4470   29.5790 H   0  0  0  0  0  0  0  0  0  0  0  0
   22.6360    2.0580   31.6210 H   0  0  0  0  0  0  0  0  0  0  0  0
   23.2350    0.7460   33.3700 H   0  0  0  0  0  0  0  0  0  0  0  0
   23.5250   -0.2080   31.8130 H   0  0  0  0  0  0  0  0  0  0  0  0
   24.5040   -0.5790   33.3200 H   0  0  0  0  0  0  0  0  0  0  0  0
  1  2  1  0  0  0  0
  1 32  1  0  0  0  0
  1 33  1  0  0  0  0
  1 34  1  0  0  0  0
  2  3  1  0  0  0  0
  2  4  1  0  0  0  0
  2 35  1  0  0  0  0
  3 36  1  0  0  0  0
  3 37  1  0  0  0  0
  3 38  1  0  0  0  0
  4  5  1  0  0  0  0
  5 11  2  0  0  0  0
  5  6  1  0  0  0  0
  6  7  2  0  0  0  0
  7  8  1  0  0  0  0
  7 14  1  0  0  0  0
  8  9  2  0  0  0  0
  8 39  1  0  0  0  0
  9 10  1  0  0  0  0
  9 11  1  0  0  0  0
 10 40  1  0  0  0  0
 10 41  1  0  0  0  0
 11 12  1  0  0  0  0
 12 13  3  0  0  0  0
 14 15  1  0  0  0  0
 14 42  1  0  0  0  0
 15 16  2  0  0  0  0
 15 17  1  0  0  0  0
 17 18  1  0  0  0  0
 17 43  1  0  0  0  0
 17 44  1  0  0  0  0
 18 29  2  0  0  0  0
 18 19  1  0  0  0  0
 19 20  1  0  0  0  0
 19 22  2  0  0  0  0
 20 21  1  0  0  0  0
 21 45  1  0  0  0  0
 21 46  1  0  0  0  0
 21 47  1  0  0  0  0
 22 23  1  0  0  0  0
 22 48  1  0  0  0  0
 23 24  1  0  0  0  0
 23 28  2  0  0  0  0
 24 25  2  0  0  0  0
 24 26  2  0  0  0  0
 24 27  1  0  0  0  0
 27 49  1  0  0  0  0
 27 50  1  0  0  0  0
 27 51  1  0  0  0  0
 28 29  1  0  0  0  0
 28 30  1  0  0  0  0
 29 52  1  0  0  0  0
 30 31  1  0  0  0  0
 31 53  1  0  0  0  0
 31 54  1  0  0  0  0
 31 55  1  0  0  0  0
M  END
$$$$
