3b
                    3D
 Schrodinger Suite 2022-3.
 58 60  0  0  1  0  0  0  0  0999 V2000
   16.2250  -15.9580   23.0030 N   0  3  0  0  0  0  0  0  0  0  0  0
   17.5540  -15.1830   23.0450 C   0  0  1  0  0  0  0  0  0  0  0  0
   17.2980  -13.7610   22.4710 C   0  0  0  0  0  0  0  0  0  0  0  0
   16.3210  -13.1040   22.8230 O   0  0  0  0  0  0  0  0  0  0  0  0
   18.0580  -15.1250   24.5010 C   0  0  0  0  0  0  0  0  0  0  0  0
   19.5040  -14.7010   24.5960 C   0  0  0  0  0  0  0  0  0  0  0  0
   20.5200  -15.5200   24.0760 C   0  0  0  0  0  0  0  0  0  0  0  0
   19.8500  -13.5150   25.2540 C   0  0  0  0  0  0  0  0  0  0  0  0
   21.8580  -15.1410   24.1990 C   0  0  0  0  0  0  0  0  0  0  0  0
   21.1910  -13.1270   25.3610 C   0  0  0  0  0  0  0  0  0  0  0  0
   22.1980  -13.9410   24.8370 C   0  0  0  0  0  0  0  0  0  0  0  0
   18.1920  -13.2690   21.5590 N   0  0  0  0  0  0  0  0  0  0  0  0
   18.0310  -11.9040   20.9630 C   0  0  2  0  0  0  0  0  0  0  0  0
   16.6070  -11.7120   20.3700 C   0  0  0  0  0  0  0  0  0  0  0  0
   16.0580  -12.5490   19.6710 O   0  0  0  0  0  0  0  0  0  0  0  0
   19.1060  -11.8270   19.8590 C   0  0  0  0  0  0  0  0  0  0  0  0
   20.1330  -12.9360   20.1590 C   0  0  0  0  0  0  0  0  0  0  0  0
   19.4120  -13.9660   21.0460 C   0  0  0  0  0  0  0  0  0  0  0  0
   16.0770  -10.4430   20.5760 N   0  0  0  0  0  0  0  0  0  0  0  0
   14.6970  -10.0850   20.1510 C   0  0  0  0  0  0  0  0  0  0  0  0
   13.6260  -10.5120   21.1290 C   0  0  0  0  0  0  0  0  0  0  0  0
   13.3060   -9.6900   22.2220 C   0  0  0  0  0  0  0  0  0  0  0  0
   12.2830  -10.0530   23.1070 C   0  0  0  0  0  0  0  0  0  0  0  0
   11.5760  -11.2500   22.8700 C   0  0  0  0  0  0  0  0  0  0  0  0
   11.9120  -12.0760   21.8010 C   0  0  0  0  0  0  0  0  0  0  0  0
   12.9330  -11.7090   20.9180 C   0  0  0  0  0  0  0  0  0  0  0  0
   13.8650   -8.7690   22.3740 H   0  0  0  0  0  0  0  0  0  0  0  0
   11.9400   -9.2910   24.3620 C   0  0  0  0  0  0  0  0  0  0  0  0
   10.7590  -11.5480   23.5330 H   0  0  0  0  0  0  0  0  0  0  0  0
   11.3790  -13.0200   21.6590 H   0  0  0  0  0  0  0  0  0  0  0  0
   13.1770  -12.3590   20.0770 H   0  0  0  0  0  0  0  0  0  0  0  0
   19.0760  -12.9000   25.7050 H   0  0  0  0  0  0  0  0  0  0  0  0
   21.4270  -12.1840   25.8600 H   0  0  0  0  0  0  0  0  0  0  0  0
   22.6350  -15.7960   23.7940 H   0  0  0  0  0  0  0  0  0  0  0  0
   23.2490  -13.6540   24.9280 H   0  0  0  0  0  0  0  0  0  0  0  0
   20.2630  -16.4600   23.5820 H   0  0  0  0  0  0  0  0  0  0  0  0
   16.3660  -16.9170   23.4380 H   0  0  0  0  0  0  0  0  0  0  0  0
   15.4690  -15.4230   23.5410 H   0  0  0  0  0  0  0  0  0  0  0  0
   15.9160  -16.1020   22.0010 H   0  0  0  0  0  0  0  0  0  0  0  0
   18.2780  -15.7860   22.4230 H   0  0  0  0  0  0  0  0  0  0  0  0
   17.9820  -16.1540   24.9530 H   0  0  0  0  0  0  0  0  0  0  0  0
   17.4070  -14.4380   25.0990 H   0  0  0  0  0  0  0  0  0  0  0  0
   18.2430  -11.1520   21.7720 H   0  0  0  0  0  0  0  0  0  0  0  0
   19.6040  -10.8390   19.8830 H   0  0  0  0  0  0  0  0  0  0  0  0
   18.6600  -12.0080   18.8520 H   0  0  0  0  0  0  0  0  0  0  0  0
   21.0180  -12.5240   20.6970 H   0  0  0  0  0  0  0  0  0  0  0  0
   20.4880  -13.4220   19.2180 H   0  0  0  0  0  0  0  0  0  0  0  0
   19.1140  -14.8660   20.4480 H   0  0  0  0  0  0  0  0  0  0  0  0
   20.0640  -14.2790   21.9010 H   0  0  0  0  0  0  0  0  0  0  0  0
   16.4790   -9.8360   21.3120 H   0  0  0  0  0  0  0  0  0  0  0  0
   14.5030  -10.5470   19.1420 H   0  0  0  0  0  0  0  0  0  0  0  0
   14.6750   -8.9650   20.0320 H   0  0  0  0  0  0  0  0  0  0  0  0
   12.4480   -7.8560   24.4870 C   0  0  0  0  0  0  0  0  0  0  0  0
   10.8250   -9.2890   24.4930 H   0  0  0  0  0  0  0  0  0  0  0  0
   12.3660   -9.8920   25.2040 H   0  0  0  0  0  0  0  0  0  0  0  0
   13.5110   -7.7770   24.1840 H   0  0  0  0  0  0  0  0  0  0  0  0
   11.8160   -7.1710   23.8930 H   0  0  0  0  0  0  0  0  0  0  0  0
   12.3820   -7.5230   25.5450 H   0  0  0  0  0  0  0  0  0  0  0  0
  1  2  1  0  0  0  0
  1 37  1  0  0  0  0
  1 38  1  0  0  0  0
  1 39  1  0  0  0  0
  2  3  1  0  0  0  0
  2  5  1  0  0  0  0
  2 40  1  0  0  0  0
  3  4  2  0  0  0  0
  3 12  1  0  0  0  0
  5  6  1  0  0  0  0
  5 41  1  0  0  0  0
  5 42  1  0  0  0  0
  6  7  2  0  0  0  0
  6  8  1  0  0  0  0
  7  9  1  0  0  0  0
  7 36  1  0  0  0  0
  8 10  2  0  0  0  0
  8 32  1  0  0  0  0
  9 11  2  0  0  0  0
  9 34  1  0  0  0  0
 10 11  1  0  0  0  0
 10 33  1  0  0  0  0
 11 35  1  0  0  0  0
 12 13  1  0  0  0  0
 12 18  1  0  0  0  0
 13 14  1  0  0  0  0
 13 16  1  0  0  0  0
 13 43  1  0  0  0  0
 14 15  2  0  0  0  0
 14 19  1  0  0  0  0
 16 17  1  0  0  0  0
 16 44  1  0  0  0  0
 16 45  1  0  0  0  0
 17 18  1  0  0  0  0
 17 46  1  0  0  0  0
 17 47  1  0  0  0  0
 18 48  1  0  0  0  0
 18 49  1  0  0  0  0
 19 20  1  0  0  0  0
 19 50  1  0  0  0  0
 20 21  1  0  0  0  0
 20 51  1  0  0  0  0
 20 52  1  0  0  0  0
 21 22  2  0  0  0  0
 21 26  1  0  0  0  0
 22 23  1  0  0  0  0
 22 27  1  0  0  0  0
 23 24  2  0  0  0  0
 23 28  1  0  0  0  0
 24 25  1  0  0  0  0
 24 29  1  0  0  0  0
 25 26  2  0  0  0  0
 25 30  1  0  0  0  0
 26 31  1  0  0  0  0
 28 53  1  0  0  0  0
 28 54  1  0  0  0  0
 28 55  1  0  0  0  0
 53 56  1  0  0  0  0
 53 57  1  0  0  0  0
 53 58  1  0  0  0  0
M  CHG  1   1   1
M  END
$$$$
