45
 OpenBabel02232411163D
Structure written by MMmdl.
 48 51  0  0  0  0  0  0  0  0999 V2000
    3.6730  -49.8360    5.8490 O   0  0  0  0  0  0  0  0  0  0  0  0
    2.9260  -49.0450    6.4600 C   0  0  0  0  0  0  0  0  0  0  0  0
    3.2700  -48.0470    7.1030 O   0  5  0  0  0  0  0  0  0  0  0  0
    1.4310  -49.4320    6.3970 C   0  0  0  0  0  0  0  0  0  0  0  0
   -0.3110  -50.9110    6.5780 C   0  0  0  0  0  0  0  0  0  0  0  0
   -1.1490  -52.0040    6.8530 C   0  0  0  0  0  0  0  0  0  0  0  0
   -2.4890  -51.8870    6.5120 C   0  0  0  0  0  0  0  0  0  0  0  0
   -2.9830  -50.7220    5.8810 C   0  0  0  0  0  0  0  0  0  0  0  0
   -2.1530  -49.6480    5.5870 C   0  0  0  0  0  0  0  0  0  0  0  0
   -0.8040  -49.6980    5.9710 C   0  0  0  0  0  0  0  0  0  0  0  0
    0.3070  -48.7710    5.9110 C   0  0  0  0  0  0  0  0  0  0  0  0
    0.1790  -47.3620    5.4500 C   0  0  0  0  0  0  0  0  0  0  0  0
   -0.4560  -46.4380    6.5110 C   0  0  0  0  0  0  0  0  0  0  0  0
   -1.9670  -46.6500    6.6140 C   0  0  0  0  0  0  0  0  0  0  0  0
   -2.4510  -45.4900    7.3850 O   0  0  0  0  0  0  0  0  0  0  0  0
   -3.7750  -45.6000    7.7930 C   0  0  0  0  0  0  0  0  0  0  0  0
   -6.3700  -45.6290    8.7660 C   0  0  0  0  0  0  0  0  0  0  0  0
   -5.3570  -46.2680    9.4800 C   0  0  0  0  0  0  0  0  0  0  0  0
   -4.0500  -46.2750    8.9890 C   0  0  0  0  0  0  0  0  0  0  0  0
   -0.7710  -52.9120    7.3230 H   0  0  0  0  0  0  0  0  0  0  0  0
   -3.1820  -52.7010    6.7270 H   0  0  0  0  0  0  0  0  0  0  0  0
   -4.0420  -50.6720    5.6200 H   0  0  0  0  0  0  0  0  0  0  0  0
   -2.5600  -48.7900    5.0540 H   0  0  0  0  0  0  0  0  0  0  0  0
   -0.4670  -47.3390    4.5370 H   0  0  0  0  0  0  0  0  0  0  0  0
    1.1790  -46.9400    5.1860 H   0  0  0  0  0  0  0  0  0  0  0  0
    0.0030  -46.6180    7.5090 H   0  0  0  0  0  0  0  0  0  0  0  0
   -0.2710  -45.3740    6.2340 H   0  0  0  0  0  0  0  0  0  0  0  0
   -2.4780  -46.5940    5.6290 H   0  0  0  0  0  0  0  0  0  0  0  0
   -2.2350  -47.5660    7.1810 H   0  0  0  0  0  0  0  0  0  0  0  0
   -3.2570  -46.7800    9.5380 H   0  0  0  0  0  0  0  0  0  0  0  0
   -6.1020  -45.0180    7.5300 C   0  0  0  0  0  0  0  0  0  0  0  0
   -4.7860  -44.9600    7.0410 C   0  0  0  0  0  0  0  0  0  0  0  0
   -4.4450  -44.2880    5.7400 C   0  0  0  0  0  0  0  0  0  0  0  0
   -5.6300  -43.5830    5.0620 C   0  0  0  0  0  0  0  0  0  0  0  0
   -6.9320  -44.3700    5.2400 C   0  0  0  0  0  0  0  0  0  0  0  0
   -7.2620  -44.4770    6.7360 C   0  0  0  0  0  0  0  0  0  0  0  0
   -5.6010  -46.7770   10.4120 H   0  0  0  0  0  0  0  0  0  0  0  0
   -7.3870  -45.6240    9.1540 H   0  0  0  0  0  0  0  0  0  0  0  0
   -4.0390  -45.0520    5.0330 H   0  0  0  0  0  0  0  0  0  0  0  0
   -3.6520  -43.5240    5.9190 H   0  0  0  0  0  0  0  0  0  0  0  0
   -5.3920  -43.4570    3.9840 H   0  0  0  0  0  0  0  0  0  0  0  0
   -5.7710  -42.5770    5.5130 H   0  0  0  0  0  0  0  0  0  0  0  0
   -6.8230  -45.3920    4.8070 H   0  0  0  0  0  0  0  0  0  0  0  0
   -7.7710  -43.8640    4.7150 H   0  0  0  0  0  0  0  0  0  0  0  0
   -7.5340  -43.4690    7.1300 H   0  0  0  0  0  0  0  0  0  0  0  0
   -8.1440  -45.1520    6.8640 H   0  0  0  0  0  0  0  0  0  0  0  0
    1.0600  -50.7250    6.8190 N   0  0  0  0  0  0  0  0  0  0  0  0
    1.6590  -51.4460    7.2030 H   0  0  0  0  0  0  0  0  0  0  0  0
  1  2  2  0  0  0  0
  2  3  1  0  0  0  0
  2  4  1  0  0  0  0
  4 11  2  0  0  0  0
  4 47  1  0  0  0  0
  5  6  2  0  0  0  0
  5 10  1  0  0  0  0
  5 47  1  0  0  0  0
  6  7  1  0  0  0  0
  6 20  1  0  0  0  0
  7  8  2  0  0  0  0
  7 21  1  0  0  0  0
  8  9  1  0  0  0  0
  8 22  1  0  0  0  0
  9 10  2  0  0  0  0
  9 23  1  0  0  0  0
 10 11  1  0  0  0  0
 11 12  1  0  0  0  0
 12 24  1  0  0  0  0
 12 25  1  0  0  0  0
 12 13  1  0  0  0  0
 13 14  1  0  0  0  0
 13 26  1  0  0  0  0
 13 27  1  0  0  0  0
 14 15  1  0  0  0  0
 14 28  1  0  0  0  0
 14 29  1  0  0  0  0
 15 16  1  0  0  0  0
 16 19  2  0  0  0  0
 16 32  1  0  0  0  0
 17 18  2  0  0  0  0
 17 31  1  0  0  0  0
 17 38  1  0  0  0  0
 18 19  1  0  0  0  0
 18 37  1  0  0  0  0
 19 30  1  0  0  0  0
 31 32  2  0  0  0  0
 31 36  1  0  0  0  0
 32 33  1  0  0  0  0
 33 34  1  0  0  0  0
 33 39  1  0  0  0  0
 33 40  1  0  0  0  0
 34 35  1  0  0  0  0
 34 41  1  0  0  0  0
 34 42  1  0  0  0  0
 35 36  1  0  0  0  0
 35 43  1  0  0  0  0
 35 44  1  0  0  0  0
 36 45  1  0  0  0  0
 36 46  1  0  0  0  0
 47 48  1  0  0  0  0
M  CHG  1   3  -1
M  END
$$$$
