23486
 OpenBabel02232411173D
Structure written by MMmdl.
 60 63  0  0  0  0  0  0  0  0999 V2000
   42.8030   17.8620   12.4510 O   0  0  0  0  0  0  0  0  0  0  0  0
   41.6610   17.5530   12.8160 C   0  0  0  0  0  0  0  0  0  0  0  0
   40.6720   18.3130   12.8650 O   0  5  0  0  0  0  0  0  0  0  0  0
   41.4040   16.0620   13.2000 C   0  0  0  0  0  0  0  0  0  0  0  0
   42.7500   15.6050   13.5560 O   0  0  0  0  0  0  0  0  0  0  0  0
   42.8090   14.7990   14.6470 C   0  0  0  0  0  0  0  0  0  0  0  0
   42.1390   13.5210   14.7380 C   0  0  0  0  0  0  0  0  0  0  0  0
   41.0140   13.0680   13.5290 Cl  0  0  0  0  0  0  0  0  0  0  0  0
   42.4830   12.7620   15.8280 C   0  0  0  0  0  0  0  0  0  0  0  0
   42.0150   11.4370   16.1740 C   0  0  0  0  0  0  0  0  0  0  0  0
   42.8180   10.4880   16.8510 C   0  0  0  0  0  0  0  0  0  0  0  0
   42.3450    9.1940   17.0460 C   0  0  0  0  0  0  0  0  0  0  0  0
   41.1030    8.7710   16.5440 C   0  0  0  0  0  0  0  0  0  0  0  0
   40.2890    9.7060   15.8950 C   0  0  0  0  0  0  0  0  0  0  0  0
   38.9650    9.4490   15.4090 N   0  0  0  0  0  0  0  0  0  0  0  0
   38.5060    8.0810   15.0480 C   0  0  0  0  0  0  0  0  0  0  0  0
   36.9760    8.1800   14.8010 C   0  0  0  0  0  0  0  0  0  0  0  0
   36.3960    6.8360   14.3250 C   0  0  0  0  0  0  0  0  0  0  0  0
   37.0960    6.3910   13.0800 N   0  0  0  0  0  0  0  0  0  0  0  0
   36.2710    5.2720   12.0990 S   0  0  0  0  0  0  0  0  0  0  0  0
   37.1200    4.9320   10.9620 O   0  0  0  0  0  0  0  0  0  0  0  0
   35.0370    5.9330   11.6490 O   0  0  0  0  0  0  0  0  0  0  0  0
   35.9370    3.8290   13.0590 C   0  0  0  0  0  0  0  0  0  0  0  0
   36.7000    2.6660   12.5090 C   0  0  0  0  0  0  0  0  0  0  0  0
   38.0500    2.4840   12.8550 C   0  0  0  0  0  0  0  0  0  0  0  0
   38.7850    1.4410   12.2880 C   0  0  0  0  0  0  0  0  0  0  0  0
   38.1790    0.5590   11.3870 C   0  0  0  0  0  0  0  0  0  0  0  0
   36.8280    0.7180   11.0670 C   0  0  0  0  0  0  0  0  0  0  0  0
   36.0860    1.7620   11.6270 C   0  0  0  0  0  0  0  0  0  0  0  0
   38.5560    6.1900   13.3390 C   0  0  0  0  0  0  0  0  0  0  0  0
   39.1890    7.5250   13.7700 C   0  0  0  0  0  0  0  0  0  0  0  0
   40.7310   11.0440   15.7740 C   0  0  0  0  0  0  0  0  0  0  0  0
   43.6700   13.6640   16.7530 S   0  0  0  0  0  0  0  0  0  0  0  0
   43.6360   15.0640   15.7070 C   0  0  0  0  0  0  0  0  0  0  0  0
   44.4240   16.3430   16.0040 C   0  0  0  0  0  0  0  0  0  0  0  0
   45.5710   16.1730   16.4660 O   0  0  0  0  0  0  0  0  0  0  0  0
   43.9080   17.4280   15.7400 O   0  5  0  0  0  0  0  0  0  0  0  0
   41.0870   15.4620   12.3230 H   0  0  0  0  0  0  0  0  0  0  0  0
   40.6860   15.9440   14.0380 H   0  0  0  0  0  0  0  0  0  0  0  0
   43.8120   10.7480   17.2210 H   0  0  0  0  0  0  0  0  0  0  0  0
   42.9540    8.4690   17.5880 H   0  0  0  0  0  0  0  0  0  0  0  0
   40.7960    7.7350   16.6660 H   0  0  0  0  0  0  0  0  0  0  0  0
   38.6930   10.1120   14.6460 H   0  0  0  0  0  0  0  0  0  0  0  0
   38.6950    7.3800   15.9010 H   0  0  0  0  0  0  0  0  0  0  0  0
   36.4690    8.4550   15.7550 H   0  0  0  0  0  0  0  0  0  0  0  0
   36.7680    8.9570   14.0280 H   0  0  0  0  0  0  0  0  0  0  0  0
   36.5220    6.0780   15.1500 H   0  0  0  0  0  0  0  0  0  0  0  0
   35.3050    6.9640   14.1120 H   0  0  0  0  0  0  0  0  0  0  0  0
   36.2110    3.9780   14.1450 H   0  0  0  0  0  0  0  0  0  0  0  0
   34.8340    3.6050   13.0900 H   0  0  0  0  0  0  0  0  0  0  0  0
   38.5350    3.1490   13.5770 H   0  0  0  0  0  0  0  0  0  0  0  0
   39.8380    1.3120   12.5580 H   0  0  0  0  0  0  0  0  0  0  0  0
   38.7570   -0.2560   10.9450 H   0  0  0  0  0  0  0  0  0  0  0  0
   36.3460    0.0190   10.3770 H   0  0  0  0  0  0  0  0  0  0  0  0
   35.0250    1.8590   11.3810 H   0  0  0  0  0  0  0  0  0  0  0  0
   38.7120    5.4350   14.1600 H   0  0  0  0  0  0  0  0  0  0  0  0
   39.0570    5.8310   12.4050 H   0  0  0  0  0  0  0  0  0  0  0  0
   39.0720    8.2630   12.9500 H   0  0  0  0  0  0  0  0  0  0  0  0
   40.2680    7.3440   13.9790 H   0  0  0  0  0  0  0  0  0  0  0  0
   40.0320   11.7750   15.3750 H   0  0  0  0  0  0  0  0  0  0  0  0
  1  2  2  0  0  0  0
  2  3  1  0  0  0  0
  2  4  1  0  0  0  0
  4  5  1  0  0  0  0
  4 38  1  0  0  0  0
  4 39  1  0  0  0  0
  5  6  1  0  0  0  0
  6 34  2  0  0  0  0
  6  7  1  0  0  0  0
  7  8  1  0  0  0  0
  7  9  2  0  0  0  0
  9 10  1  0  0  0  0
  9 33  1  0  0  0  0
 10 32  2  0  0  0  0
 10 11  1  0  0  0  0
 11 12  2  0  0  0  0
 11 40  1  0  0  0  0
 12 13  1  0  0  0  0
 12 41  1  0  0  0  0
 13 14  2  0  0  0  0
 13 42  1  0  0  0  0
 14 15  1  0  0  0  0
 14 32  1  0  0  0  0
 15 16  1  0  0  0  0
 15 43  1  0  0  0  0
 16 31  1  0  0  0  0
 16 17  1  0  0  0  0
 16 44  1  0  0  0  0
 17 18  1  0  0  0  0
 17 45  1  0  0  0  0
 17 46  1  0  0  0  0
 18 19  1  0  0  0  0
 18 47  1  0  0  0  0
 18 48  1  0  0  0  0
 19 20  1  0  0  0  0
 19 30  1  0  0  0  0
 20 21  2  0  0  0  0
 20 22  2  0  0  0  0
 20 23  1  0  0  0  0
 23 24  1  0  0  0  0
 23 49  1  0  0  0  0
 23 50  1  0  0  0  0
 24 29  2  0  0  0  0
 24 25  1  0  0  0  0
 25 26  2  0  0  0  0
 25 51  1  0  0  0  0
 26 27  1  0  0  0  0
 26 52  1  0  0  0  0
 27 28  2  0  0  0  0
 27 53  1  0  0  0  0
 28 29  1  0  0  0  0
 28 54  1  0  0  0  0
 29 55  1  0  0  0  0
 30 31  1  0  0  0  0
 30 56  1  0  0  0  0
 30 57  1  0  0  0  0
 31 58  1  0  0  0  0
 31 59  1  0  0  0  0
 32 60  1  0  0  0  0
 33 34  1  0  0  0  0
 34 35  1  0  0  0  0
 35 36  2  0  0  0  0
 35 37  1  0  0  0  0
M  CHG  2   3  -1  37  -1
M  END
$$$$
