p38a_2x
 OpenBabel02232411163D
Structure written by MMmdl.
 43 46  0  0  1  0  0  0  0  0999 V2000
   38.2990   36.5590   17.1230 C   0  0  0  0  0  0  0  0  0  0  0  0
   34.5590   35.0320   21.1420 C   0  0  0  0  0  0  0  0  0  0  0  0
   37.5040   36.0910   18.1650 C   0  0  0  0  0  0  0  0  0  0  0  0
   33.9680   39.0580   23.7550 C   0  0  0  0  0  0  0  0  0  0  0  0
   34.6390   37.9090   21.3420 C   0  0  0  0  0  0  0  0  0  0  0  0
   35.0390   37.2740   20.1150 C   0  0  0  0  0  0  0  0  0  0  0  0
   37.6670   36.7230   15.8830 C   0  0  0  0  0  0  0  0  0  0  0  0
   36.3230   36.4170   15.6560 C   0  0  0  0  0  0  0  0  0  0  0  0
   35.5490   35.9330   16.7150 C   0  0  0  0  0  0  0  0  0  0  0  0
   34.2810   37.1120   22.4700 C   0  0  0  0  0  0  0  0  0  0  0  0
   34.6060   39.3190   21.5140 C   0  0  0  0  0  0  0  0  0  0  0  0
   35.0280   35.9230   20.0480 C   0  0  0  0  0  0  0  0  0  0  0  0
   36.1460   35.7610   17.9670 C   0  0  0  0  0  0  0  0  0  0  0  0
   33.8800   34.9110   23.5710 C   0  0  0  0  0  0  0  0  0  0  0  0
   38.0200   35.9520   19.3800 F   0  0  0  0  0  0  0  0  0  0  0  0
   35.4120   35.1220   18.9750 O   0  0  0  0  0  0  0  0  0  0  0  0
   34.2900   39.9060   22.6800 N   0  0  0  0  0  0  0  0  0  0  0  0
   34.4300   33.8290   21.0650 O   0  0  0  0  0  0  0  0  0  0  0  0
   34.2480   35.7120   22.3700 N   0  0  0  0  0  0  0  0  0  0  0  0
   33.9610   37.6810   23.6780 N   0  0  0  0  0  0  0  0  0  0  0  0
   33.5690   39.6490   24.9410 N   0  0  0  0  0  0  0  0  0  0  0  0
   39.3490   36.8240   17.2740 H   0  0  0  0  0  0  0  0  0  0  0  0
   35.3490   37.9090   19.2820 H   0  0  0  0  0  0  0  0  0  0  0  0
   35.8660   36.5670   14.6760 H   0  0  0  0  0  0  0  0  0  0  0  0
   34.4890   35.7080   16.5590 H   0  0  0  0  0  0  0  0  0  0  0  0
   34.8470   39.9820   20.6670 H   0  0  0  0  0  0  0  0  0  0  0  0
   34.5660   35.1630   24.4260 H   0  0  0  0  0  0  0  0  0  0  0  0
   32.8260   35.1480   23.8820 H   0  0  0  0  0  0  0  0  0  0  0  0
   33.9610   33.8160   23.3480 H   0  0  0  0  0  0  0  0  0  0  0  0
   33.7260   40.6700   25.0690 H   0  0  0  0  0  0  0  0  0  0  0  0
   38.3740   37.2380   14.8800 F   0  0  0  0  0  0  0  0  0  0  0  0
   33.3360   39.3660   28.5290 O   0  0  0  0  0  0  0  0  0  0  0  0
   34.7350   39.0560   28.2690 C   0  0  0  0  0  0  0  0  0  0  0  0
   34.8220   38.5170   26.8350 C   0  0  0  0  0  0  0  0  0  0  0  0
   33.4520   38.8420   26.1850 C   0  0  1  0  0  0  0  0  0  0  0  0
   32.6770   39.6390   27.2690 C   0  0  0  0  0  0  0  0  0  0  0  0
   34.9960   38.3000   29.0400 H   0  0  0  0  0  0  0  0  0  0  0  0
   35.3160   39.9970   28.3970 H   0  0  0  0  0  0  0  0  0  0  0  0
   35.6630   38.9940   26.2860 H   0  0  0  0  0  0  0  0  0  0  0  0
   34.9920   37.4140   26.8280 H   0  0  0  0  0  0  0  0  0  0  0  0
   32.9040   37.8900   25.9380 H   0  0  0  0  0  0  0  0  0  0  0  0
   31.6380   39.2710   27.4060 H   0  0  0  0  0  0  0  0  0  0  0  0
   32.7100   40.7380   27.1000 H   0  0  0  0  0  0  0  0  0  0  0  0
  1  3  2  0  0  0  0
  1  7  1  0  0  0  0
  1 22  1  0  0  0  0
  2 12  1  0  0  0  0
  2 18  2  0  0  0  0
  2 19  1  0  0  0  0
  3 13  1  0  0  0  0
  3 15  1  0  0  0  0
  4 17  2  0  0  0  0
  4 20  1  0  0  0  0
  4 21  1  0  0  0  0
  5  6  1  0  0  0  0
  5 10  1  0  0  0  0
  5 11  2  0  0  0  0
  6 12  2  0  0  0  0
  6 23  1  0  0  0  0
  7  8  2  0  0  0  0
  7 31  1  0  0  0  0
  8  9  1  0  0  0  0
  8 24  1  0  0  0  0
  9 13  2  0  0  0  0
  9 25  1  0  0  0  0
 10 19  1  0  0  0  0
 10 20  2  0  0  0  0
 11 17  1  0  0  0  0
 11 26  1  0  0  0  0
 12 16  1  0  0  0  0
 13 16  1  0  0  0  0
 14 19  1  0  0  0  0
 14 27  1  0  0  0  0
 14 28  1  0  0  0  0
 14 29  1  0  0  0  0
 21 30  1  0  0  0  0
 21 35  1  0  0  0  0
 32 33  1  0  0  0  0
 32 36  1  0  0  0  0
 33 34  1  0  0  0  0
 33 37  1  0  0  0  0
 33 38  1  0  0  0  0
 34 35  1  0  0  0  0
 34 39  1  0  0  0  0
 34 40  1  0  0  0  0
 35 36  1  0  0  0  0
 35 41  1  1  0  0  0
 36 42  1  0  0  0  0
 36 43  1  0  0  0  0
M  END
$$$$
