p38a_3flq
 OpenBabel02232411163D
Structure written by MMmdl.
 47 49  0  0  1  0  0  0  0  0999 V2000
   34.0810   38.9170   23.8060 C   0  0  0  0  0  0  0  0  0  0  0  0
   34.7630   37.7980   21.3770 C   0  0  0  0  0  0  0  0  0  0  0  0
   35.2590   37.1670   20.1830 C   0  0  0  0  0  0  0  0  0  0  0  0
   34.2620   37.0000   22.4480 C   0  0  0  0  0  0  0  0  0  0  0  0
   35.1810   35.8200   20.0810 C   0  0  0  0  0  0  0  0  0  0  0  0
   33.8210   38.6140   26.2810 C   0  0  1  0  0  0  0  0  0  0  0  0
   35.2030   37.9840   26.4840 C   0  0  0  0  0  0  0  0  0  0  0  0
   31.0970   38.2860   28.2950 C   0  0  0  0  0  0  0  0  0  0  0  0
   34.1170   35.6120   22.2910 N   0  0  0  0  0  0  0  0  0  0  0  0
   33.4390   39.4900   27.4890 C   0  0  0  0  0  0  0  0  0  0  0  0
   38.3190   37.2230   14.8240 F   0  0  0  0  0  0  0  0  0  0  0  0
   37.7020   36.6580   15.8590 C   0  0  0  0  0  0  0  0  0  0  0  0
   38.3530   36.6340   17.0960 C   0  0  0  0  0  0  0  0  0  0  0  0
   37.6660   36.1430   18.2120 C   0  0  0  0  0  0  0  0  0  0  0  0
   36.4120   36.1520   15.6540 C   0  0  0  0  0  0  0  0  0  0  0  0
   35.7660   35.6290   16.7700 C   0  0  0  0  0  0  0  0  0  0  0  0
   34.5590   35.0920   16.6620 F   0  0  0  0  0  0  0  0  0  0  0  0
   36.3720   35.6450   18.0420 C   0  0  0  0  0  0  0  0  0  0  0  0
   35.6560   35.0020   19.0600 O   0  0  0  0  0  0  0  0  0  0  0  0
   34.5230   34.9400   21.0870 C   0  0  0  0  0  0  0  0  0  0  0  0
   34.3230   33.7530   20.9510 O   0  0  0  0  0  0  0  0  0  0  0  0
   34.7820   39.2020   21.5870 C   0  0  0  0  0  0  0  0  0  0  0  0
   34.4590   39.7750   22.7590 N   0  0  0  0  0  0  0  0  0  0  0  0
   33.9230   37.5530   23.6560 N   0  0  0  0  0  0  0  0  0  0  0  0
   33.5410   34.8190   23.4130 C   0  0  0  0  0  0  0  0  0  0  0  0
   33.7970   39.4740   25.0410 N   0  0  0  0  0  0  0  0  0  0  0  0
   32.7250   38.5930   28.8290 S   0  0  0  0  0  0  0  0  0  0  0  0
   33.4400   37.3260   29.0970 O   0  0  0  0  0  0  0  0  0  0  0  0
   32.7250   39.4350   30.0500 O   0  0  0  0  0  0  0  0  0  0  0  0
   35.7030   37.8030   19.4150 H   0  0  0  0  0  0  0  0  0  0  0  0
   33.0440   37.8140   26.1170 H   0  0  0  0  0  0  0  0  0  0  0  0
   35.4600   37.3090   25.6360 H   0  0  0  0  0  0  0  0  0  0  0  0
   35.9840   38.7690   26.5720 H   0  0  0  0  0  0  0  0  0  0  0  0
   35.1870   37.3640   27.4130 H   0  0  0  0  0  0  0  0  0  0  0  0
   30.3260   38.6810   29.0050 H   0  0  0  0  0  0  0  0  0  0  0  0
   30.8740   38.7200   27.2850 H   0  0  0  0  0  0  0  0  0  0  0  0
   30.8910   37.1840   28.1920 H   0  0  0  0  0  0  0  0  0  0  0  0
   34.3530   40.0500   27.8350 H   0  0  0  0  0  0  0  0  0  0  0  0
   32.7270   40.2950   27.1520 H   0  0  0  0  0  0  0  0  0  0  0  0
   39.3680   37.0230   17.2060 H   0  0  0  0  0  0  0  0  0  0  0  0
   38.1360   36.1820   19.1980 H   0  0  0  0  0  0  0  0  0  0  0  0
   35.9300   36.1880   14.6750 H   0  0  0  0  0  0  0  0  0  0  0  0
   35.0800   39.8770   20.7680 H   0  0  0  0  0  0  0  0  0  0  0  0
   33.5360   33.7280   23.1580 H   0  0  0  0  0  0  0  0  0  0  0  0
   34.1480   34.9790   24.3460 H   0  0  0  0  0  0  0  0  0  0  0  0
   32.4890   35.1580   23.6190 H   0  0  0  0  0  0  0  0  0  0  0  0
   33.9690   40.4880   25.1800 H   0  0  0  0  0  0  0  0  0  0  0  0
  1 23  2  0  0  0  0
  1 24  1  0  0  0  0
  1 26  1  0  0  0  0
  2  3  1  0  0  0  0
  2  4  1  0  0  0  0
  2 22  2  0  0  0  0
  3  5  2  0  0  0  0
  3 30  1  0  0  0  0
  4  9  1  0  0  0  0
  4 24  2  0  0  0  0
  5 19  1  0  0  0  0
  5 20  1  0  0  0  0
  6  7  1  0  0  0  0
  6 10  1  0  0  0  0
  6 26  1  0  0  0  0
  6 31  1  6  0  0  0
  7 32  1  0  0  0  0
  7 33  1  0  0  0  0
  7 34  1  0  0  0  0
  8 27  1  0  0  0  0
  8 35  1  0  0  0  0
  8 36  1  0  0  0  0
  8 37  1  0  0  0  0
  9 20  1  0  0  0  0
  9 25  1  0  0  0  0
 10 27  1  0  0  0  0
 10 38  1  0  0  0  0
 10 39  1  0  0  0  0
 11 12  1  0  0  0  0
 12 13  2  0  0  0  0
 12 15  1  0  0  0  0
 13 14  1  0  0  0  0
 13 40  1  0  0  0  0
 14 18  2  0  0  0  0
 14 41  1  0  0  0  0
 15 16  2  0  0  0  0
 15 42  1  0  0  0  0
 16 17  1  0  0  0  0
 16 18  1  0  0  0  0
 18 19  1  0  0  0  0
 20 21  2  0  0  0  0
 22 23  1  0  0  0  0
 22 43  1  0  0  0  0
 25 44  1  0  0  0  0
 25 45  1  0  0  0  0
 25 46  1  0  0  0  0
 26 47  1  0  0  0  0
 27 28  2  0  0  0  0
 27 29  2  0  0  0  0
M  END
$$$$
