CAT-13i
 OpenBabel02232411143D
Structure written by MMmdl.
 46 49  0  0  1  0  0  0  0  0999 V2000
   11.7700   -1.8720    1.2010 C   0  0  0  0  0  0  0  0  0  0  0  0
   13.0600   -2.2780    0.6130 N   0  0  0  0  0  0  0  0  0  0  0  0
   14.2390   -2.3780    1.3630 C   0  0  0  0  0  0  0  0  0  0  0  0
   14.3420   -2.3720    2.7190 N   0  0  0  0  0  0  0  0  0  0  0  0
   15.3240   -2.5820    0.5140 N   0  3  0  0  0  0  0  0  0  0  0  0
   14.8480   -2.8990   -0.8820 C   0  0  2  0  0  0  0  0  0  0  0  0
   15.1270   -4.3620   -1.2380 C   0  0  0  0  0  0  0  0  0  0  0  0
   14.6640   -5.4880   -0.3280 C   0  0  0  0  0  0  0  0  0  0  0  0
   13.7420   -5.4570    0.8850 C   0  0  0  0  0  0  0  0  0  0  0  0
   13.2580   -6.0780   -0.4040 C   0  0  0  0  0  0  0  0  0  0  0  0
   15.4160   -1.8490   -1.8350 C   0  0  0  0  0  0  0  0  0  0  0  0
   16.1130   -2.1870   -2.9990 C   0  0  0  0  0  0  0  0  0  0  0  0
   16.5710   -1.1730   -3.8490 C   0  0  0  0  0  0  0  0  0  0  0  0
   16.3450    0.1710   -3.5520 C   0  0  0  0  0  0  0  0  0  0  0  0
   15.6580    0.5260   -2.3780 C   0  0  0  0  0  0  0  0  0  0  0  0
   15.4020    1.9430   -2.0300 C   0  0  0  0  0  0  0  0  0  0  0  0
   14.9820    2.8670   -3.0010 C   0  0  0  0  0  0  0  0  0  0  0  0
   14.6650    4.1800   -2.6370 C   0  0  0  0  0  0  0  0  0  0  0  0
   14.7420    4.5890   -1.3020 C   0  0  0  0  0  0  0  0  0  0  0  0
   15.1770    3.6660   -0.3490 C   0  0  0  0  0  0  0  0  0  0  0  0
   15.2160    4.1120    1.3170 Cl  0  0  0  0  0  0  0  0  0  0  0  0
   15.5350    2.3630   -0.6950 C   0  0  0  0  0  0  0  0  0  0  0  0
   15.1930   -0.4940   -1.5350 C   0  0  0  0  0  0  0  0  0  0  0  0
   13.3090   -2.6430   -0.7890 C   0  0  0  0  0  0  0  0  0  0  0  0
   12.4450   -2.6710   -1.6060 O   0  0  0  0  0  0  0  0  0  0  0  0
   11.6320   -2.3500    2.2080 H   0  0  0  0  0  0  0  0  0  0  0  0
   11.7690   -0.7560    1.3110 H   0  0  0  0  0  0  0  0  0  0  0  0
   10.9320   -2.1940    0.5290 H   0  0  0  0  0  0  0  0  0  0  0  0
   13.6170   -1.9330    3.3350 H   0  0  0  0  0  0  0  0  0  0  0  0
   16.2170   -2.9870    0.8980 H   0  0  0  0  0  0  0  0  0  0  0  0
   16.2460   -4.4600   -1.3310 H   0  0  0  0  0  0  0  0  0  0  0  0
   14.6730   -4.5600   -2.2490 H   0  0  0  0  0  0  0  0  0  0  0  0
   15.4850   -6.2240   -0.2460 H   0  0  0  0  0  0  0  0  0  0  0  0
   14.0050   -6.1210    1.7230 H   0  0  0  0  0  0  0  0  0  0  0  0
   13.2600   -4.5570    1.2530 H   0  0  0  0  0  0  0  0  0  0  0  0
   12.4980   -5.5530   -0.9920 H   0  0  0  0  0  0  0  0  0  0  0  0
   13.1530   -7.1700   -0.4530 H   0  0  0  0  0  0  0  0  0  0  0  0
   16.3050   -3.2280   -3.2620 H   0  0  0  0  0  0  0  0  0  0  0  0
   17.1190   -1.4350   -4.7600 H   0  0  0  0  0  0  0  0  0  0  0  0
   16.7060    0.9430   -4.2390 H   0  0  0  0  0  0  0  0  0  0  0  0
   14.8840    2.5590   -4.0480 H   0  0  0  0  0  0  0  0  0  0  0  0
   14.3310    4.8870   -3.4060 H   0  0  0  0  0  0  0  0  0  0  0  0
   14.4470    5.6020   -1.0150 H   0  0  0  0  0  0  0  0  0  0  0  0
   15.8990    1.6660    0.0600 H   0  0  0  0  0  0  0  0  0  0  0  0
   14.6490   -0.2330   -0.6280 H   0  0  0  0  0  0  0  0  0  0  0  0
   15.3030   -2.3810    3.1570 H   0  0  0  0  0  0  0  0  0  0  0  0
  1  2  1  0  0  0  0
  1 26  1  0  0  0  0
  1 27  1  0  0  0  0
  1 28  1  0  0  0  0
  2  3  1  0  0  0  0
  2 24  1  0  0  0  0
  3  4  1  0  0  0  0
  3  5  2  0  0  0  0
  4 29  1  0  0  0  0
  4 46  1  0  0  0  0
  5  6  1  0  0  0  0
  5 30  1  0  0  0  0
  6  7  1  6  0  0  0
  6 11  1  0  0  0  0
  6 24  1  0  0  0  0
  7  8  1  0  0  0  0
  7 31  1  0  0  0  0
  7 32  1  0  0  0  0
  8  9  1  0  0  0  0
  8 10  1  0  0  0  0
  8 33  1  0  0  0  0
  9 10  1  0  0  0  0
  9 34  1  0  0  0  0
  9 35  1  0  0  0  0
 10 36  1  0  0  0  0
 10 37  1  0  0  0  0
 11 12  2  0  0  0  0
 11 23  1  0  0  0  0
 12 13  1  0  0  0  0
 12 38  1  0  0  0  0
 13 14  2  0  0  0  0
 13 39  1  0  0  0  0
 14 15  1  0  0  0  0
 14 40  1  0  0  0  0
 15 16  1  0  0  0  0
 15 23  2  0  0  0  0
 16 17  2  0  0  0  0
 16 22  1  0  0  0  0
 17 18  1  0  0  0  0
 17 41  1  0  0  0  0
 18 19  2  0  0  0  0
 18 42  1  0  0  0  0
 19 20  1  0  0  0  0
 19 43  1  0  0  0  0
 20 21  1  0  0  0  0
 20 22  2  0  0  0  0
 22 44  1  0  0  0  0
 23 45  1  0  0  0  0
 24 25  2  0  0  0  0
M  CHG  1   5   1
M  END
$$$$
