18636-1
                    3D
 Schrodinger Suite 2022-3.
 38 39  0  0  1  0  0  0  0  0999 V2000
   25.8080    3.9180   31.0670 C   0  0  0  0  0  0  0  0  0  0  0  0
   24.6810    4.3530   30.3620 C   0  0  0  0  0  0  0  0  0  0  0  0
   23.4080    3.8070   30.5980 C   0  0  0  0  0  0  0  0  0  0  0  0
   23.3070    2.7400   31.5090 C   0  0  0  0  0  0  0  0  0  0  0  0
   24.4360    2.3000   32.1980 C   0  0  0  0  0  0  0  0  0  0  0  0
   25.6870    2.8900   32.0050 C   0  0  0  0  0  0  0  0  0  0  0  0
   22.1620    4.3070   29.9270 C   0  0  0  0  0  0  0  0  0  0  0  0
   21.3640    5.2460   30.8280 C   0  0  0  0  0  0  0  0  0  0  0  0
   21.9020    6.5510   30.8840 N   0  0  0  0  0  0  0  0  0  0  0  0
   21.3170    7.6940   31.4830 C   0  0  0  0  0  0  0  0  0  0  0  0
   20.3510    4.9230   31.4110 O   0  0  0  0  0  0  0  0  0  0  0  0
   22.0410    8.8370   31.1830 N   0  0  0  0  0  0  0  0  0  0  0  0
   21.5620   10.0200   31.6320 C   0  0  0  0  0  0  0  0  0  0  0  0
   20.3820   10.1630   32.4210 C   0  0  0  0  0  0  0  0  0  0  0  0
   19.6720    8.9610   32.7380 C   0  0  0  0  0  0  0  0  0  0  0  0
   20.1610    7.7150   32.2550 C   0  0  0  0  0  0  0  0  0  0  0  0
   18.5200    8.9980   33.4810 N   0  0  0  0  0  0  0  0  0  0  0  0
   19.9740   11.4570   32.8080 C   0  0  0  0  0  0  0  0  0  0  0  0
   22.1990   11.1660   31.3100 O   0  0  0  0  0  0  0  0  0  0  0  0
   23.4620   11.1100   30.5420 C   0  0  0  0  0  0  0  0  0  0  0  0
   23.1790   10.9050   29.0700 C   0  0  0  0  0  0  0  0  0  0  0  0
   19.6930   12.5480   33.0840 N   0  0  0  0  0  0  0  0  0  0  0  0
   26.7930    4.3710   30.8860 H   0  0  0  0  0  0  0  0  0  0  0  0
   22.3420    2.2450   31.6680 H   0  0  0  0  0  0  0  0  0  0  0  0
   19.6130    6.7990   32.4780 H   0  0  0  0  0  0  0  0  0  0  0  0
   21.5030    3.4370   29.6620 H   0  0  0  0  0  0  0  0  0  0  0  0
   22.4050    4.8410   28.9680 H   0  0  0  0  0  0  0  0  0  0  0  0
   22.7850    6.7460   30.3610 H   0  0  0  0  0  0  0  0  0  0  0  0
   18.0270    8.1270   33.7570 H   0  0  0  0  0  0  0  0  0  0  0  0
   18.1240    9.8820   33.8010 H   0  0  0  0  0  0  0  0  0  0  0  0
   24.1190   10.3160   30.9640 H   0  0  0  0  0  0  0  0  0  0  0  0
   23.8450   12.1370   30.7610 H   0  0  0  0  0  0  0  0  0  0  0  0
   24.1250   11.0470   28.4900 H   0  0  0  0  0  0  0  0  0  0  0  0
   22.8030    9.8740   28.8670 H   0  0  0  0  0  0  0  0  0  0  0  0
   22.4320   11.6390   28.6930 H   0  0  0  0  0  0  0  0  0  0  0  0
   26.5720    2.5530   32.5620 H   0  0  0  0  0  0  0  0  0  0  0  0
   24.2710    0.8470   33.4240 Br  0  0  0  0  0  0  0  0  0  0  0  0
   24.9760    5.6730   29.0090 Br  0  0  0  0  0  0  0  0  0  0  0  0
  1  2  1  0  0  0  0
  1  6  2  0  0  0  0
  1 23  1  0  0  0  0
  2  3  2  0  0  0  0
  2 38  1  0  0  0  0
  3  4  1  0  0  0  0
  3  7  1  0  0  0  0
  4  5  2  0  0  0  0
  4 24  1  0  0  0  0
  5  6  1  0  0  0  0
  5 37  1  0  0  0  0
  6 36  1  0  0  0  0
  7  8  1  0  0  0  0
  7 26  1  0  0  0  0
  7 27  1  0  0  0  0
  8  9  1  0  0  0  0
  8 11  2  0  0  0  0
  9 10  1  0  0  0  0
  9 28  1  0  0  0  0
 10 12  1  0  0  0  0
 10 16  2  0  0  0  0
 12 13  2  0  0  0  0
 13 14  1  0  0  0  0
 13 19  1  0  0  0  0
 14 15  2  0  0  0  0
 14 18  1  0  0  0  0
 15 16  1  0  0  0  0
 15 17  1  0  0  0  0
 16 25  1  0  0  0  0
 17 29  1  0  0  0  0
 17 30  1  0  0  0  0
 18 22  3  0  0  0  0
 19 20  1  0  0  0  0
 20 21  1  0  0  0  0
 20 31  1  0  0  0  0
 20 32  1  0  0  0  0
 21 33  1  0  0  0  0
 21 34  1  0  0  0  0
 21 35  1  0  0  0  0
M  END
$$$$
