18631-1
 OpenBabel02232411163D
Structure written by MMmdl.
 42 43  0  0  0  0  0  0  0  0999 V2000
   24.4340   10.8490   30.7600 C   0  0  0  0  0  0  0  0  0  0  0  0
   23.1090   11.2250   30.1300 C   0  0  0  0  0  0  0  0  0  0  0  0
   22.0330   11.2740   31.1410 O   0  0  0  0  0  0  0  0  0  0  0  0
   21.4410   10.1230   31.5360 C   0  0  0  0  0  0  0  0  0  0  0  0
   21.9060    8.9370   31.0820 N   0  0  0  0  0  0  0  0  0  0  0  0
   21.2080    7.7920   31.4430 C   0  0  0  0  0  0  0  0  0  0  0  0
   20.0820    7.8250   32.2610 C   0  0  0  0  0  0  0  0  0  0  0  0
   19.6060    9.0740   32.7380 C   0  0  0  0  0  0  0  0  0  0  0  0
   18.4750    9.1160   33.5140 N   0  0  0  0  0  0  0  0  0  0  0  0
   20.2990   10.2750   32.3780 C   0  0  0  0  0  0  0  0  0  0  0  0
   19.8950   11.5710   32.7590 C   0  0  0  0  0  0  0  0  0  0  0  0
   19.6130   12.6630   33.0310 N   0  0  0  0  0  0  0  0  0  0  0  0
   21.7750    6.6370   30.8650 N   0  0  0  0  0  0  0  0  0  0  0  0
   21.2150    5.3370   30.8280 C   0  0  0  0  0  0  0  0  0  0  0  0
   20.1640    5.0630   31.3660 O   0  0  0  0  0  0  0  0  0  0  0  0
   22.0260    4.3570   29.9900 C   0  0  0  0  0  0  0  0  0  0  0  0
   23.3650    4.0480   30.5910 C   0  0  0  0  0  0  0  0  0  0  0  0
   24.4850    4.8910   30.3570 C   0  0  0  0  0  0  0  0  0  0  0  0
   24.1920    5.9670   29.5340 O   0  0  0  0  0  0  0  0  0  0  0  0
   25.2010    7.0000   29.3700 C   0  0  0  0  0  0  0  0  0  0  0  0
   25.7400    4.6200   30.9020 C   0  0  0  0  0  0  0  0  0  0  0  0
   25.8950    3.4840   31.7060 C   0  0  0  0  0  0  0  0  0  0  0  0
   24.8150    2.6350   31.9420 C   0  0  0  0  0  0  0  0  0  0  0  0
   23.5610    2.9120   31.3800 C   0  0  0  0  0  0  0  0  0  0  0  0
   24.3890    9.8390   31.2310 H   0  0  0  0  0  0  0  0  0  0  0  0
   24.7400   11.5920   31.5260 H   0  0  0  0  0  0  0  0  0  0  0  0
   25.2220   10.8160   29.9660 H   0  0  0  0  0  0  0  0  0  0  0  0
   23.0900   12.2900   29.7930 H   0  0  0  0  0  0  0  0  0  0  0  0
   22.8180   10.5260   29.3140 H   0  0  0  0  0  0  0  0  0  0  0  0
   19.5480    6.9100   32.5260 H   0  0  0  0  0  0  0  0  0  0  0  0
   17.9810    8.2440   33.7860 H   0  0  0  0  0  0  0  0  0  0  0  0
   18.0780   10.0010   33.8290 H   0  0  0  0  0  0  0  0  0  0  0  0
   22.6800    6.7960   30.3550 H   0  0  0  0  0  0  0  0  0  0  0  0
   21.4370    3.4110   29.8770 H   0  0  0  0  0  0  0  0  0  0  0  0
   22.1760    4.8050   28.9700 H   0  0  0  0  0  0  0  0  0  0  0  0
   25.5190    7.3940   30.3590 H   0  0  0  0  0  0  0  0  0  0  0  0
   26.0560    6.5920   28.7890 H   0  0  0  0  0  0  0  0  0  0  0  0
   24.6400    7.7700   28.7910 H   0  0  0  0  0  0  0  0  0  0  0  0
   26.6020    5.2610   30.7130 H   0  0  0  0  0  0  0  0  0  0  0  0
   26.8750    3.2640   32.1430 H   0  0  0  0  0  0  0  0  0  0  0  0
   24.9470    1.7450   32.5640 H   0  0  0  0  0  0  0  0  0  0  0  0
   22.7360    2.2180   31.5700 H   0  0  0  0  0  0  0  0  0  0  0  0
  1  2  1  0  0  0  0
  1 25  1  0  0  0  0
  1 26  1  0  0  0  0
  1 27  1  0  0  0  0
  2  3  1  0  0  0  0
  2 28  1  0  0  0  0
  2 29  1  0  0  0  0
  3  4  1  0  0  0  0
  4 10  2  0  0  0  0
  4  5  1  0  0  0  0
  5  6  2  0  0  0  0
  6  7  1  0  0  0  0
  6 13  1  0  0  0  0
  7  8  2  0  0  0  0
  7 30  1  0  0  0  0
  8  9  1  0  0  0  0
  8 10  1  0  0  0  0
  9 31  1  0  0  0  0
  9 32  1  0  0  0  0
 10 11  1  0  0  0  0
 11 12  3  0  0  0  0
 13 14  1  0  0  0  0
 13 33  1  0  0  0  0
 14 15  2  0  0  0  0
 14 16  1  0  0  0  0
 16 17  1  0  0  0  0
 16 34  1  0  0  0  0
 16 35  1  0  0  0  0
 17 24  2  0  0  0  0
 17 18  1  0  0  0  0
 18 19  1  0  0  0  0
 18 21  2  0  0  0  0
 19 20  1  0  0  0  0
 20 36  1  0  0  0  0
 20 37  1  0  0  0  0
 20 38  1  0  0  0  0
 21 22  1  0  0  0  0
 21 39  1  0  0  0  0
 22 23  2  0  0  0  0
 22 40  1  0  0  0  0
 23 24  1  0  0  0  0
 23 41  1  0  0  0  0
 24 42  1  0  0  0  0
M  END
$$$$
