p38a_2u
 OpenBabel02232411163D
Structure written by MMmdl.
 64 68  0  0  0  0  0  0  0  0999 V2000
   38.2570   36.5290   17.1760 C   0  0  0  0  0  0  0  0  0  0  0  0
   34.5730   35.1270   21.2680 C   0  0  0  0  0  0  0  0  0  0  0  0
   37.4580   36.0880   18.2280 C   0  0  0  0  0  0  0  0  0  0  0  0
   33.9900   39.2120   23.7940 C   0  0  0  0  0  0  0  0  0  0  0  0
   34.6250   38.0060   21.3950 C   0  0  0  0  0  0  0  0  0  0  0  0
   34.9940   37.3500   20.1700 C   0  0  0  0  0  0  0  0  0  0  0  0
   37.6190   36.7020   15.9400 C   0  0  0  0  0  0  0  0  0  0  0  0
   36.2650   36.4310   15.7260 C   0  0  0  0  0  0  0  0  0  0  0  0
   35.4870   35.9760   16.7960 C   0  0  0  0  0  0  0  0  0  0  0  0
   34.3140   37.2320   22.5510 C   0  0  0  0  0  0  0  0  0  0  0  0
   34.5700   39.4200   21.5330 C   0  0  0  0  0  0  0  0  0  0  0  0
   34.9980   35.9990   20.1360 C   0  0  0  0  0  0  0  0  0  0  0  0
   36.0900   35.7970   18.0440 C   0  0  0  0  0  0  0  0  0  0  0  0
   37.9820   35.9370   19.4370 F   0  0  0  0  0  0  0  0  0  0  0  0
   35.3500   35.1820   19.0640 O   0  0  0  0  0  0  0  0  0  0  0  0
   34.2720   40.0360   22.6870 N   0  0  0  0  0  0  0  0  0  0  0  0
   34.4560   33.9230   21.1940 O   0  0  0  0  0  0  0  0  0  0  0  0
   34.3100   35.8230   22.5010 N   0  0  0  0  0  0  0  0  0  0  0  0
   34.0130   37.8330   23.7460 N   0  0  0  0  0  0  0  0  0  0  0  0
   33.6010   39.8190   24.9680 N   0  0  0  0  0  0  0  0  0  0  0  0
   39.3150   36.7670   17.3170 H   0  0  0  0  0  0  0  0  0  0  0  0
   35.2690   37.9700   19.3140 H   0  0  0  0  0  0  0  0  0  0  0  0
   35.8030   36.5830   14.7480 H   0  0  0  0  0  0  0  0  0  0  0  0
   34.4200   35.7800   16.6520 H   0  0  0  0  0  0  0  0  0  0  0  0
   34.7750   40.0620   20.6600 H   0  0  0  0  0  0  0  0  0  0  0  0
   33.7130   40.8450   25.0770 H   0  0  0  0  0  0  0  0  0  0  0  0
   38.3330   37.1870   14.9270 F   0  0  0  0  0  0  0  0  0  0  0  0
   32.2680   39.0500   28.4610 C   0  0  0  0  0  0  0  0  0  0  0  0
   32.3460   39.7220   27.0840 C   0  0  0  0  0  0  0  0  0  0  0  0
   33.4610   39.0570   26.2470 C   0  0  0  0  0  0  0  0  0  0  0  0
   34.7970   39.0570   27.0230 C   0  0  0  0  0  0  0  0  0  0  0  0
   34.5950   38.4400   28.4130 C   0  0  0  0  0  0  0  0  0  0  0  0
   33.5410   39.1090   29.1450 O   0  0  0  0  0  0  0  0  0  0  0  0
   31.9550   37.9830   28.3670 H   0  0  0  0  0  0  0  0  0  0  0  0
   31.5980   39.6120   29.1500 H   0  0  0  0  0  0  0  0  0  0  0  0
   32.5640   40.8090   27.2090 H   0  0  0  0  0  0  0  0  0  0  0  0
   31.3690   39.6120   26.5550 H   0  0  0  0  0  0  0  0  0  0  0  0
   33.1630   37.9970   26.0160 H   0  0  0  0  0  0  0  0  0  0  0  0
   35.5540   38.4530   26.4660 H   0  0  0  0  0  0  0  0  0  0  0  0
   35.1770   40.1010   27.1220 H   0  0  0  0  0  0  0  0  0  0  0  0
   34.3450   37.3560   28.3330 H   0  0  0  0  0  0  0  0  0  0  0  0
   35.4830   38.6070   29.0640 H   0  0  0  0  0  0  0  0  0  0  0  0
   34.6820   33.2150   25.3380 C   0  0  0  0  0  0  0  0  0  0  0  0
   35.0290   33.9810   24.0460 C   0  0  0  0  0  0  0  0  0  0  0  0
   33.9590   35.0510   23.7570 C   0  0  0  0  0  0  0  0  0  0  0  0
   32.5380   34.4610   23.6500 C   0  0  0  0  0  0  0  0  0  0  0  0
   32.4710   33.0120   24.1770 C   0  0  0  0  0  0  0  0  0  0  0  0
   34.9520   33.8640   26.2140 H   0  0  0  0  0  0  0  0  0  0  0  0
   35.2990   32.2780   25.3650 H   0  0  0  0  0  0  0  0  0  0  0  0
   35.0970   33.2650   23.1930 H   0  0  0  0  0  0  0  0  0  0  0  0
   36.0150   34.4810   24.1870 H   0  0  0  0  0  0  0  0  0  0  0  0
   33.9740   35.7750   24.6260 H   0  0  0  0  0  0  0  0  0  0  0  0
   31.8390   35.1150   24.2270 H   0  0  0  0  0  0  0  0  0  0  0  0
   32.1790   34.4580   22.5930 H   0  0  0  0  0  0  0  0  0  0  0  0
   31.3960   32.7400   24.3520 H   0  0  0  0  0  0  0  0  0  0  0  0
   32.8910   32.3230   23.3980 H   0  0  0  0  0  0  0  0  0  0  0  0
   33.2520   32.7850   25.4200 N   0  0  0  0  0  0  0  0  0  0  0  0
   32.4440   32.9370   26.9350 S   0  0  0  0  0  0  0  0  0  0  0  0
   33.0980   31.9970   27.8660 O   0  0  0  0  0  0  0  0  0  0  0  0
   31.0290   32.5770   26.7130 O   0  0  0  0  0  0  0  0  0  0  0  0
   32.6170   34.5730   27.4770 C   0  0  0  0  0  0  0  0  0  0  0  0
   33.6440   34.8060   27.8670 H   0  0  0  0  0  0  0  0  0  0  0  0
   32.3950   35.3280   26.6790 H   0  0  0  0  0  0  0  0  0  0  0  0
   31.9150   34.8140   28.3210 H   0  0  0  0  0  0  0  0  0  0  0  0
  1  3  2  0  0  0  0
  1  7  1  0  0  0  0
  1 21  1  0  0  0  0
  2 12  1  0  0  0  0
  2 17  2  0  0  0  0
  2 18  1  0  0  0  0
  3 13  1  0  0  0  0
  3 14  1  0  0  0  0
  4 16  2  0  0  0  0
  4 19  1  0  0  0  0
  4 20  1  0  0  0  0
  5  6  1  0  0  0  0
  5 10  1  0  0  0  0
  5 11  2  0  0  0  0
  6 12  2  0  0  0  0
  6 22  1  0  0  0  0
  7  8  2  0  0  0  0
  7 27  1  0  0  0  0
  8  9  1  0  0  0  0
  8 23  1  0  0  0  0
  9 13  2  0  0  0  0
  9 24  1  0  0  0  0
 10 18  1  0  0  0  0
 10 19  2  0  0  0  0
 11 16  1  0  0  0  0
 11 25  1  0  0  0  0
 12 15  1  0  0  0  0
 13 15  1  0  0  0  0
 18 45  1  0  0  0  0
 20 26  1  0  0  0  0
 20 30  1  0  0  0  0
 28 29  1  0  0  0  0
 28 33  1  0  0  0  0
 28 34  1  0  0  0  0
 28 35  1  0  0  0  0
 29 30  1  0  0  0  0
 29 36  1  0  0  0  0
 29 37  1  0  0  0  0
 30 31  1  0  0  0  0
 30 38  1  0  0  0  0
 31 32  1  0  0  0  0
 31 39  1  0  0  0  0
 31 40  1  0  0  0  0
 32 33  1  0  0  0  0
 32 41  1  0  0  0  0
 32 42  1  0  0  0  0
 43 44  1  0  0  0  0
 43 48  1  0  0  0  0
 43 49  1  0  0  0  0
 43 57  1  0  0  0  0
 44 45  1  0  0  0  0
 44 50  1  0  0  0  0
 44 51  1  0  0  0  0
 45 46  1  0  0  0  0
 45 52  1  0  0  0  0
 46 47  1  0  0  0  0
 46 53  1  0  0  0  0
 46 54  1  0  0  0  0
 47 55  1  0  0  0  0
 47 56  1  0  0  0  0
 47 57  1  0  0  0  0
 57 58  1  0  0  0  0
 58 59  2  0  0  0  0
 58 60  2  0  0  0  0
 58 61  1  0  0  0  0
 61 62  1  0  0  0  0
 61 63  1  0  0  0  0
 61 64  1  0  0  0  0
M  END
$$$$
