18639-1
 OpenBabel02232411163D
Structure written by MMmdl.
 48 49  0  0  0  0  0  0  0  0999 V2000
   23.9090   12.5770   30.3480 C   0  0  0  0  0  0  0  0  0  0  0  0
   23.4440   11.1370   30.4530 C   0  0  0  0  0  0  0  0  0  0  0  0
   22.1910   11.2460   31.2460 O   0  0  0  0  0  0  0  0  0  0  0  0
   21.5560   10.1080   31.5970 C   0  0  0  0  0  0  0  0  0  0  0  0
   22.0320    8.9190   31.1550 N   0  0  0  0  0  0  0  0  0  0  0  0
   21.3040    7.7830   31.4750 C   0  0  0  0  0  0  0  0  0  0  0  0
   20.1480    7.8210   32.2460 C   0  0  0  0  0  0  0  0  0  0  0  0
   19.6660    9.0710   32.7210 C   0  0  0  0  0  0  0  0  0  0  0  0
   18.5190    9.1100   33.4720 N   0  0  0  0  0  0  0  0  0  0  0  0
   20.3790   10.2670   32.3880 C   0  0  0  0  0  0  0  0  0  0  0  0
   19.9720   11.5660   32.7590 C   0  0  0  0  0  0  0  0  0  0  0  0
   19.6870   12.6580   33.0240 N   0  0  0  0  0  0  0  0  0  0  0  0
   21.8750    6.6150   30.9170 N   0  0  0  0  0  0  0  0  0  0  0  0
   21.2630    5.3470   30.8270 C   0  0  0  0  0  0  0  0  0  0  0  0
   20.1660    5.1110   31.2870 O   0  0  0  0  0  0  0  0  0  0  0  0
   22.0740    4.3340   30.0280 C   0  0  0  0  0  0  0  0  0  0  0  0
   23.4230    4.0240   30.6080 C   0  0  0  0  0  0  0  0  0  0  0  0
   24.5450    4.8610   30.3120 C   0  0  0  0  0  0  0  0  0  0  0  0
   24.2250    5.9130   29.4640 O   0  0  0  0  0  0  0  0  0  0  0  0
   25.2130    6.9680   29.2940 C   0  0  0  0  0  0  0  0  0  0  0  0
   25.8080    4.5930   30.8140 C   0  0  0  0  0  0  0  0  0  0  0  0
   25.9970    3.4710   31.6490 C   0  0  0  0  0  0  0  0  0  0  0  0
   27.3320    3.1870   32.1820 N   0  3  0  0  0  0  0  0  0  0  0  0
   27.4270    2.4010   33.1120 O   0  5  0  0  0  0  0  0  0  0  0  0
   28.2970    3.7430   31.6710 O   0  0  0  0  0  0  0  0  0  0  0  0
   24.9010    2.6270   31.9430 C   0  0  0  0  0  0  0  0  0  0  0  0
   23.6230    2.9100   31.4060 C   0  0  0  0  0  0  0  0  0  0  0  0
   25.2090    1.5790   32.7580 O   0  0  0  0  0  0  0  0  0  0  0  0
   24.1890    0.5590   32.9670 C   0  0  0  0  0  0  0  0  0  0  0  0
   24.8030   12.6130   29.6750 H   0  0  0  0  0  0  0  0  0  0  0  0
   23.1150   13.2230   29.9050 H   0  0  0  0  0  0  0  0  0  0  0  0
   24.1940   12.9880   31.3420 H   0  0  0  0  0  0  0  0  0  0  0  0
   23.1770   10.7010   29.4650 H   0  0  0  0  0  0  0  0  0  0  0  0
   24.1580   10.4950   31.0150 H   0  0  0  0  0  0  0  0  0  0  0  0
   19.5930    6.9090   32.4760 H   0  0  0  0  0  0  0  0  0  0  0  0
   18.0160    8.2380   33.7260 H   0  0  0  0  0  0  0  0  0  0  0  0
   18.1180    9.9950   33.7840 H   0  0  0  0  0  0  0  0  0  0  0  0
   22.7990    6.7510   30.4360 H   0  0  0  0  0  0  0  0  0  0  0  0
   21.4760    3.3870   29.9490 H   0  0  0  0  0  0  0  0  0  0  0  0
   22.2150    4.7530   28.9910 H   0  0  0  0  0  0  0  0  0  0  0  0
   25.5280    7.3710   30.2800 H   0  0  0  0  0  0  0  0  0  0  0  0
   26.0650    6.5770   28.6990 H   0  0  0  0  0  0  0  0  0  0  0  0
   24.6260    7.7230   28.7210 H   0  0  0  0  0  0  0  0  0  0  0  0
   26.6670    5.2270   30.5650 H   0  0  0  0  0  0  0  0  0  0  0  0
   22.7860    2.2390   31.6230 H   0  0  0  0  0  0  0  0  0  0  0  0
   24.7440   -0.1840   33.5880 H   0  0  0  0  0  0  0  0  0  0  0  0
   23.3300    0.9850   33.5270 H   0  0  0  0  0  0  0  0  0  0  0  0
   23.8860    0.1180   31.9920 H   0  0  0  0  0  0  0  0  0  0  0  0
  1  2  1  0  0  0  0
  1 30  1  0  0  0  0
  1 31  1  0  0  0  0
  1 32  1  0  0  0  0
  2  3  1  0  0  0  0
  2 33  1  0  0  0  0
  2 34  1  0  0  0  0
  3  4  1  0  0  0  0
  4 10  2  0  0  0  0
  4  5  1  0  0  0  0
  5  6  2  0  0  0  0
  6  7  1  0  0  0  0
  6 13  1  0  0  0  0
  7  8  2  0  0  0  0
  7 35  1  0  0  0  0
  8  9  1  0  0  0  0
  8 10  1  0  0  0  0
  9 36  1  0  0  0  0
  9 37  1  0  0  0  0
 10 11  1  0  0  0  0
 11 12  3  0  0  0  0
 13 14  1  0  0  0  0
 13 38  1  0  0  0  0
 14 15  2  0  0  0  0
 14 16  1  0  0  0  0
 16 17  1  0  0  0  0
 16 39  1  0  0  0  0
 16 40  1  0  0  0  0
 17 27  2  0  0  0  0
 17 18  1  0  0  0  0
 18 19  1  0  0  0  0
 18 21  2  0  0  0  0
 19 20  1  0  0  0  0
 20 41  1  0  0  0  0
 20 42  1  0  0  0  0
 20 43  1  0  0  0  0
 21 22  1  0  0  0  0
 21 44  1  0  0  0  0
 22 23  1  0  0  0  0
 22 26  2  0  0  0  0
 23 24  1  0  0  0  0
 23 25  2  0  0  0  0
 26 27  1  0  0  0  0
 26 28  1  0  0  0  0
 27 45  1  0  0  0  0
 28 29  1  0  0  0  0
 29 46  1  0  0  0  0
 29 47  1  0  0  0  0
 29 48  1  0  0  0  0
M  CHG  2  23   1  24  -1
M  END
$$$$
