p38a_2ff
 OpenBabel02232411163D
Structure written by MMmdl.
 49 52  0  0  1  0  0  0  0  0999 V2000
   38.2750   36.5520   17.1350 C   0  0  0  0  0  0  0  0  0  0  0  0
   34.5260   35.0750   21.1470 C   0  0  0  0  0  0  0  0  0  0  0  0
   37.4690   36.0870   18.1710 C   0  0  0  0  0  0  0  0  0  0  0  0
   33.9310   39.1280   23.7230 C   0  0  0  0  0  0  0  0  0  0  0  0
   34.6030   37.9540   21.3180 C   0  0  0  0  0  0  0  0  0  0  0  0
   34.9960   37.3090   20.0960 C   0  0  0  0  0  0  0  0  0  0  0  0
   37.6500   36.7360   15.8940 C   0  0  0  0  0  0  0  0  0  0  0  0
   36.3020   36.4560   15.6600 C   0  0  0  0  0  0  0  0  0  0  0  0
   35.5160   35.9750   16.7130 C   0  0  0  0  0  0  0  0  0  0  0  0
   34.2400   37.1690   22.4530 C   0  0  0  0  0  0  0  0  0  0  0  0
   34.5760   39.3650   21.4790 C   0  0  0  0  0  0  0  0  0  0  0  0
   34.9860   35.9570   20.0420 C   0  0  0  0  0  0  0  0  0  0  0  0
   36.1060   35.7830   17.9650 C   0  0  0  0  0  0  0  0  0  0  0  0
   33.8140   34.9800   23.5670 C   0  0  0  0  0  0  0  0  0  0  0  0
   37.9770   35.9280   19.3860 F   0  0  0  0  0  0  0  0  0  0  0  0
   35.3600   35.1500   18.9670 O   0  0  0  0  0  0  0  0  0  0  0  0
   34.2600   39.9650   22.6370 N   0  0  0  0  0  0  0  0  0  0  0  0
   34.4120   33.8700   21.0850 O   0  0  0  0  0  0  0  0  0  0  0  0
   34.2030   35.7680   22.3640 N   0  0  0  0  0  0  0  0  0  0  0  0
   33.9190   37.7480   23.6540 N   0  0  0  0  0  0  0  0  0  0  0  0
   33.5370   39.7320   24.8940 N   0  0  0  0  0  0  0  0  0  0  0  0
   39.3300   36.7980   17.2910 H   0  0  0  0  0  0  0  0  0  0  0  0
   35.3010   37.9360   19.2560 H   0  0  0  0  0  0  0  0  0  0  0  0
   35.8500   36.6220   14.6810 H   0  0  0  0  0  0  0  0  0  0  0  0
   34.4530   35.7700   16.5510 H   0  0  0  0  0  0  0  0  0  0  0  0
   34.8200   40.0200   20.6260 H   0  0  0  0  0  0  0  0  0  0  0  0
   34.4960   35.2260   24.4260 H   0  0  0  0  0  0  0  0  0  0  0  0
   32.7620   35.2350   23.8690 H   0  0  0  0  0  0  0  0  0  0  0  0
   33.8780   33.8820   23.3520 H   0  0  0  0  0  0  0  0  0  0  0  0
   33.6650   40.7560   25.0140 H   0  0  0  0  0  0  0  0  0  0  0  0
   38.3700   37.2420   14.8960 F   0  0  0  0  0  0  0  0  0  0  0  0
   31.9730   38.8990   28.2790 C   0  0  0  0  0  0  0  0  0  0  0  0
   32.1980   39.6440   26.9580 C   0  0  0  0  0  0  0  0  0  0  0  0
   33.3390   38.9670   26.1620 C   0  0  2  0  0  0  0  0  0  0  0  0
   34.6520   38.9420   26.9800 C   0  0  0  0  0  0  0  0  0  0  0  0
   34.4310   38.2160   28.3130 C   0  0  0  0  0  0  0  0  0  0  0  0
   33.2770   38.8650   29.0990 C   0  0  2  0  0  0  0  0  0  0  0  0
   31.6240   37.8610   28.0630 H   0  0  0  0  0  0  0  0  0  0  0  0
   31.1760   39.4110   28.8670 H   0  0  0  0  0  0  0  0  0  0  0  0
   32.4620   40.7080   27.1670 H   0  0  0  0  0  0  0  0  0  0  0  0
   31.2620   39.6240   26.3520 H   0  0  0  0  0  0  0  0  0  0  0  0
   33.0330   37.9120   25.9180 H   0  0  0  0  0  0  0  0  0  0  0  0
   35.4410   38.4080   26.4010 H   0  0  0  0  0  0  0  0  0  0  0  0
   34.9970   39.9860   27.1700 H   0  0  0  0  0  0  0  0  0  0  0  0
   34.2000   37.1410   28.1130 H   0  0  0  0  0  0  0  0  0  0  0  0
   35.3680   38.2620   28.9170 H   0  0  0  0  0  0  0  0  0  0  0  0
   33.5540   39.8870   29.4510 H   0  0  0  0  0  0  0  0  0  0  0  0
   33.0700   38.1610   30.3400 O   0  0  0  0  0  0  0  0  0  0  0  0
   32.7720   37.2350   30.1540 H   0  0  0  0  0  0  0  0  0  0  0  0
  1  3  2  0  0  0  0
  1  7  1  0  0  0  0
  1 22  1  0  0  0  0
  2 12  1  0  0  0  0
  2 18  2  0  0  0  0
  2 19  1  0  0  0  0
  3 13  1  0  0  0  0
  3 15  1  0  0  0  0
  4 17  2  0  0  0  0
  4 20  1  0  0  0  0
  4 21  1  0  0  0  0
  5  6  1  0  0  0  0
  5 10  1  0  0  0  0
  5 11  2  0  0  0  0
  6 12  2  0  0  0  0
  6 23  1  0  0  0  0
  7  8  2  0  0  0  0
  7 31  1  0  0  0  0
  8  9  1  0  0  0  0
  8 24  1  0  0  0  0
  9 13  2  0  0  0  0
  9 25  1  0  0  0  0
 10 19  1  0  0  0  0
 10 20  2  0  0  0  0
 11 17  1  0  0  0  0
 11 26  1  0  0  0  0
 12 16  1  0  0  0  0
 13 16  1  0  0  0  0
 14 19  1  0  0  0  0
 14 27  1  0  0  0  0
 14 28  1  0  0  0  0
 14 29  1  0  0  0  0
 21 30  1  0  0  0  0
 21 34  1  0  0  0  0
 32 33  1  0  0  0  0
 32 37  1  0  0  0  0
 32 38  1  0  0  0  0
 32 39  1  0  0  0  0
 33 34  1  0  0  0  0
 33 40  1  0  0  0  0
 33 41  1  0  0  0  0
 34 35  1  0  0  0  0
 34 42  1  6  0  0  0
 35 36  1  0  0  0  0
 35 43  1  0  0  0  0
 35 44  1  0  0  0  0
 36 37  1  0  0  0  0
 36 45  1  0  0  0  0
 36 46  1  0  0  0  0
 37 47  1  1  0  0  0
 37 48  1  0  0  0  0
 48 49  1  0  0  0  0
M  END
$$$$
