CAT-17e
 OpenBabel02232411143D
Structure written by MMmdl.
 46 49  0  0  1  0  0  0  0  0999 V2000
   12.2780    4.1690   -5.4000 C   0  0  0  0  0  0  0  0  0  0  0  0
   12.7780    4.8270   -4.2030 O   0  0  0  0  0  0  0  0  0  0  0  0
   13.5950    4.1170   -3.3720 C   0  0  0  0  0  0  0  0  0  0  0  0
   13.9700    4.8470   -2.1980 C   0  0  0  0  0  0  0  0  0  0  0  0
   14.7600    4.3110   -1.2570 N   0  0  0  0  0  0  0  0  0  0  0  0
   15.1940    3.0260   -1.4170 C   0  0  0  0  0  0  0  0  0  0  0  0
   14.8660    2.2550   -2.5440 C   0  0  0  0  0  0  0  0  0  0  0  0
   15.3420    0.8590   -2.6600 C   0  0  0  0  0  0  0  0  0  0  0  0
   16.2260    0.4800   -3.6850 C   0  0  0  0  0  0  0  0  0  0  0  0
   16.6970   -0.8330   -3.7490 C   0  0  0  0  0  0  0  0  0  0  0  0
   16.2650   -1.7890   -2.8250 C   0  0  0  0  0  0  0  0  0  0  0  0
   15.3370   -1.4300   -1.8400 C   0  0  0  0  0  0  0  0  0  0  0  0
   14.7700   -2.4680   -0.8980 C   0  0  1  0  0  0  0  0  0  0  0  0
   15.0070   -3.9140   -1.3050 C   0  0  0  0  0  0  0  0  0  0  0  0
   16.2530   -4.6600   -0.8620 C   0  0  0  0  0  0  0  0  0  0  0  0
   14.9080   -5.0460   -0.2890 C   0  0  0  0  0  0  0  0  0  0  0  0
   15.2250   -2.1690    0.5120 N   0  3  0  0  0  0  0  0  0  0  0  0
   14.1390   -2.2940    1.3930 C   0  0  0  0  0  0  0  0  0  0  0  0
   14.2960   -2.4500    2.7390 N   0  0  0  0  0  0  0  0  0  0  0  0
   12.9450   -2.2760    0.6820 N   0  0  0  0  0  0  0  0  0  0  0  0
   11.6060   -2.4260    1.2900 C   0  0  0  0  0  0  0  0  0  0  0  0
   13.2150   -2.3240   -0.7740 C   0  0  0  0  0  0  0  0  0  0  0  0
   12.3430   -2.2600   -1.5770 O   0  0  0  0  0  0  0  0  0  0  0  0
   14.8990   -0.1000   -1.7390 C   0  0  0  0  0  0  0  0  0  0  0  0
   14.0600    2.8140   -3.5530 C   0  0  0  0  0  0  0  0  0  0  0  0
   11.6580    4.9800   -5.8530 H   0  0  0  0  0  0  0  0  0  0  0  0
   13.1220    3.8880   -6.0640 H   0  0  0  0  0  0  0  0  0  0  0  0
   11.6560    3.2910   -5.1240 H   0  0  0  0  0  0  0  0  0  0  0  0
   13.5930    5.8710   -2.0420 H   0  0  0  0  0  0  0  0  0  0  0  0
   15.8100    2.6060   -0.6090 H   0  0  0  0  0  0  0  0  0  0  0  0
   16.5490    1.2080   -4.4350 H   0  0  0  0  0  0  0  0  0  0  0  0
   17.4090   -1.1240   -4.5290 H   0  0  0  0  0  0  0  0  0  0  0  0
   16.6520   -2.8090   -2.8760 H   0  0  0  0  0  0  0  0  0  0  0  0
   14.6320   -4.1170   -2.3260 H   0  0  0  0  0  0  0  0  0  0  0  0
   16.7600   -5.3000   -1.5840 H   0  0  0  0  0  0  0  0  0  0  0  0
   16.9780   -4.1540   -0.2190 H   0  0  0  0  0  0  0  0  0  0  0  0
   14.7010   -4.8160    0.7630 H   0  0  0  0  0  0  0  0  0  0  0  0
   14.4280   -5.9820   -0.6050 H   0  0  0  0  0  0  0  0  0  0  0  0
   16.1600   -2.5290    0.8530 H   0  0  0  0  0  0  0  0  0  0  0  0
   13.5830   -2.0810    3.4180 H   0  0  0  0  0  0  0  0  0  0  0  0
   11.0750   -3.2910    0.8050 H   0  0  0  0  0  0  0  0  0  0  0  0
   11.6820   -2.6340    2.3880 H   0  0  0  0  0  0  0  0  0  0  0  0
   11.0210   -1.4800    1.1300 H   0  0  0  0  0  0  0  0  0  0  0  0
   14.2150    0.1850   -0.9390 H   0  0  0  0  0  0  0  0  0  0  0  0
   13.8130    2.2210   -4.4370 H   0  0  0  0  0  0  0  0  0  0  0  0
   15.2790   -2.3850    3.1340 H   0  0  0  0  0  0  0  0  0  0  0  0
  1  2  1  0  0  0  0
  1 26  1  0  0  0  0
  1 27  1  0  0  0  0
  1 28  1  0  0  0  0
  2  3  1  0  0  0  0
  3  4  2  0  0  0  0
  3 25  1  0  0  0  0
  4  5  1  0  0  0  0
  4 29  1  0  0  0  0
  5  6  2  0  0  0  0
  6  7  1  0  0  0  0
  6 30  1  0  0  0  0
  7  8  1  0  0  0  0
  7 25  2  0  0  0  0
  8  9  2  0  0  0  0
  8 24  1  0  0  0  0
  9 10  1  0  0  0  0
  9 31  1  0  0  0  0
 10 11  2  0  0  0  0
 10 32  1  0  0  0  0
 11 12  1  0  0  0  0
 11 33  1  0  0  0  0
 12 24  2  0  0  0  0
 13 12  1  6  0  0  0
 13 14  1  0  0  0  0
 13 17  1  0  0  0  0
 13 22  1  0  0  0  0
 14 15  1  0  0  0  0
 14 16  1  0  0  0  0
 14 34  1  0  0  0  0
 15 16  1  0  0  0  0
 15 35  1  0  0  0  0
 15 36  1  0  0  0  0
 16 37  1  0  0  0  0
 16 38  1  0  0  0  0
 17 18  2  0  0  0  0
 17 39  1  0  0  0  0
 18 19  1  0  0  0  0
 18 20  1  0  0  0  0
 19 40  1  0  0  0  0
 19 46  1  0  0  0  0
 20 21  1  0  0  0  0
 20 22  1  0  0  0  0
 21 41  1  0  0  0  0
 21 42  1  0  0  0  0
 21 43  1  0  0  0  0
 22 23  2  0  0  0  0
 24 44  1  0  0  0  0
 25 45  1  0  0  0  0
M  CHG  1  17   1
M  END
$$$$
