p38a_2j
 OpenBabel02232411163D
Structure written by MMmdl.
 48 51  0  0  0  0  0  0  0  0999 V2000
   33.7770   38.7320   27.1500 C   0  0  0  0  0  0  0  0  0  0  0  0
   33.3000   38.1230   28.4760 C   0  0  0  0  0  0  0  0  0  0  0  0
   31.0120   37.9930   27.6940 C   0  0  0  0  0  0  0  0  0  0  0  0
   31.3900   38.5890   26.3310 C   0  0  0  0  0  0  0  0  0  0  0  0
   35.9850   34.7680   15.8790 C   0  0  0  0  0  0  0  0  0  0  0  0
   32.1260   37.2970   28.2990 O   0  0  0  0  0  0  0  0  0  0  0  0
   34.8010   35.8630   21.3140 C   0  0  0  0  0  0  0  0  0  0  0  0
   36.4890   35.4200   17.0060 C   0  0  0  0  0  0  0  0  0  0  0  0
   33.3820   39.5910   24.0460 C   0  0  0  0  0  0  0  0  0  0  0  0
   32.6140   39.5070   26.5030 C   0  0  0  0  0  0  0  0  0  0  0  0
   34.3630   38.6500   21.6580 C   0  0  0  0  0  0  0  0  0  0  0  0
   35.0830   38.1720   20.5180 C   0  0  0  0  0  0  0  0  0  0  0  0
   33.7610   34.9280   16.9020 C   0  0  0  0  0  0  0  0  0  0  0  0
   34.3140   35.5850   18.0040 C   0  0  0  0  0  0  0  0  0  0  0  0
   34.0320   37.7600   22.7240 C   0  0  0  0  0  0  0  0  0  0  0  0
   34.0380   40.0210   21.8270 C   0  0  0  0  0  0  0  0  0  0  0  0
   35.3780   36.8530   20.3910 C   0  0  0  0  0  0  0  0  0  0  0  0
   35.6960   35.7990   18.1060 C   0  0  0  0  0  0  0  0  0  0  0  0
   33.8400   35.4490   23.6310 C   0  0  0  0  0  0  0  0  0  0  0  0
   37.8040   35.6410   17.0420 F   0  0  0  0  0  0  0  0  0  0  0  0
   36.3370   36.3660   19.3420 C   0  0  0  0  0  0  0  0  0  0  0  0
   33.5780   40.5080   22.9800 N   0  0  0  0  0  0  0  0  0  0  0  0
   34.7380   34.6600   21.1530 O   0  0  0  0  0  0  0  0  0  0  0  0
   34.2230   36.3920   22.5440 N   0  0  0  0  0  0  0  0  0  0  0  0
   33.5380   38.2270   23.9250 N   0  0  0  0  0  0  0  0  0  0  0  0
   33.0010   40.1750   25.2280 N   0  0  0  0  0  0  0  0  0  0  0  0
   34.6350   39.4200   27.3460 H   0  0  0  0  0  0  0  0  0  0  0  0
   34.1300   37.9190   26.4690 H   0  0  0  0  0  0  0  0  0  0  0  0
   34.0430   37.3940   28.8750 H   0  0  0  0  0  0  0  0  0  0  0  0
   33.0720   38.9190   29.2220 H   0  0  0  0  0  0  0  0  0  0  0  0
   30.6550   38.7810   28.3960 H   0  0  0  0  0  0  0  0  0  0  0  0
   30.2600   37.1790   27.5830 H   0  0  0  0  0  0  0  0  0  0  0  0
   31.6260   37.7610   25.6180 H   0  0  0  0  0  0  0  0  0  0  0  0
   30.5300   39.1670   25.9210 H   0  0  0  0  0  0  0  0  0  0  0  0
   36.6330   34.4920   15.0450 H   0  0  0  0  0  0  0  0  0  0  0  0
   32.3330   40.3680   27.1840 H   0  0  0  0  0  0  0  0  0  0  0  0
   35.4170   38.9170   19.7890 H   0  0  0  0  0  0  0  0  0  0  0  0
   32.6850   34.7420   16.8610 H   0  0  0  0  0  0  0  0  0  0  0  0
   33.6470   35.9330   18.7990 H   0  0  0  0  0  0  0  0  0  0  0  0
   34.1590   40.7200   20.9820 H   0  0  0  0  0  0  0  0  0  0  0  0
   34.4330   35.6750   24.5580 H   0  0  0  0  0  0  0  0  0  0  0  0
   32.7480   35.5590   23.8680 H   0  0  0  0  0  0  0  0  0  0  0  0
   34.0420   34.3940   23.3100 H   0  0  0  0  0  0  0  0  0  0  0  0
   33.0500   41.2140   25.2910 H   0  0  0  0  0  0  0  0  0  0  0  0
   37.0020   37.2240   19.0480 H   0  0  0  0  0  0  0  0  0  0  0  0
   36.9950   35.5770   19.7980 H   0  0  0  0  0  0  0  0  0  0  0  0
   34.6100   34.5130   15.8760 C   0  0  0  0  0  0  0  0  0  0  0  0
   34.0950   33.7960   14.8790 F   0  0  0  0  0  0  0  0  0  0  0  0
  1  2  1  0  0  0  0
  1 10  1  0  0  0  0
  1 27  1  0  0  0  0
  1 28  1  0  0  0  0
  2  6  1  0  0  0  0
  2 29  1  0  0  0  0
  2 30  1  0  0  0  0
  3  4  1  0  0  0  0
  3  6  1  0  0  0  0
  3 31  1  0  0  0  0
  3 32  1  0  0  0  0
  4 10  1  0  0  0  0
  4 33  1  0  0  0  0
  4 34  1  0  0  0  0
  5  8  2  0  0  0  0
  5 35  1  0  0  0  0
  5 47  1  0  0  0  0
  7 17  1  0  0  0  0
  7 23  2  0  0  0  0
  7 24  1  0  0  0  0
  8 18  1  0  0  0  0
  8 20  1  0  0  0  0
  9 22  2  0  0  0  0
  9 25  1  0  0  0  0
  9 26  1  0  0  0  0
 10 26  1  0  0  0  0
 10 36  1  0  0  0  0
 11 12  1  0  0  0  0
 11 15  1  0  0  0  0
 11 16  2  0  0  0  0
 12 17  2  0  0  0  0
 12 37  1  0  0  0  0
 13 14  1  0  0  0  0
 13 38  1  0  0  0  0
 13 47  2  0  0  0  0
 14 18  2  0  0  0  0
 14 39  1  0  0  0  0
 15 24  1  0  0  0  0
 15 25  2  0  0  0  0
 16 22  1  0  0  0  0
 16 40  1  0  0  0  0
 17 21  1  0  0  0  0
 18 21  1  0  0  0  0
 19 24  1  0  0  0  0
 19 41  1  0  0  0  0
 19 42  1  0  0  0  0
 19 43  1  0  0  0  0
 21 45  1  0  0  0  0
 21 46  1  0  0  0  0
 26 44  1  0  0  0  0
 47 48  1  0  0  0  0
M  END
$$$$
