2x
                    3D
 Schrodinger Suite 2022-3.
 43 46  0  0  1  0  0  0  0  0999 V2000
   15.9560   10.5290   31.6940 C   0  0  0  0  0  0  0  0  0  0  0  0
   21.3710   12.5190   31.3140 C   0  0  0  0  0  0  0  0  0  0  0  0
   17.2500   11.0260   31.8210 C   0  0  0  0  0  0  0  0  0  0  0  0
   23.9290    8.4240   31.1110 C   0  0  0  0  0  0  0  0  0  0  0  0
   21.5220    9.6990   30.7450 C   0  0  0  0  0  0  0  0  0  0  0  0
   20.2510   10.3640   30.6780 C   0  0  0  0  0  0  0  0  0  0  0  0
   15.2760   10.8400   30.5100 C   0  0  0  0  0  0  0  0  0  0  0  0
   15.8320   11.6120   29.4870 C   0  0  0  0  0  0  0  0  0  0  0  0
   17.1270   12.1150   29.6460 C   0  0  0  0  0  0  0  0  0  0  0  0
   22.6750   10.4080   31.1960 C   0  0  0  0  0  0  0  0  0  0  0  0
   21.7000    8.3340   30.3980 C   0  0  0  0  0  0  0  0  0  0  0  0
   20.1870   11.6800   30.9870 C   0  0  0  0  0  0  0  0  0  0  0  0
   17.8290   11.8340   30.8220 C   0  0  0  0  0  0  0  0  0  0  0  0
   23.8280   12.5040   31.8960 C   0  0  0  0  0  0  0  0  0  0  0  0
   17.9650   10.7280   32.8990 F   0  0  0  0  0  0  0  0  0  0  0  0
   14.0490   10.3510   30.3440 F   0  0  0  0  0  0  0  0  0  0  0  0
   19.0510   12.4830   31.0410 O   0  0  0  0  0  0  0  0  0  0  0  0
   22.8630    7.6860   30.5640 N   0  0  0  0  0  0  0  0  0  0  0  0
   21.3710   13.7210   31.4630 O   0  0  0  0  0  0  0  0  0  0  0  0
   22.5980   11.7830   31.4650 N   0  0  0  0  0  0  0  0  0  0  0  0
   23.8840    9.7780   31.3700 N   0  0  0  0  0  0  0  0  0  0  0  0
   25.0680    7.7210   31.4420 N   0  0  0  0  0  0  0  0  0  0  0  0
   15.2790   11.8140   28.5680 H   0  0  0  0  0  0  0  0  0  0  0  0
   17.5830   12.7150   28.8510 H   0  0  0  0  0  0  0  0  0  0  0  0
   15.5110    9.8990   32.4650 H   0  0  0  0  0  0  0  0  0  0  0  0
   19.3780    9.7780   30.3860 H   0  0  0  0  0  0  0  0  0  0  0  0
   20.8620    7.7640   29.9660 H   0  0  0  0  0  0  0  0  0  0  0  0
   26.0720    9.3200   32.4450 H   0  0  0  0  0  0  0  0  0  0  0  0
   24.3030   11.9680   32.7630 H   0  0  0  0  0  0  0  0  0  0  0  0
   24.5680   12.5370   31.0510 H   0  0  0  0  0  0  0  0  0  0  0  0
   23.5750   13.5510   32.2060 H   0  0  0  0  0  0  0  0  0  0  0  0
   25.1830    6.7500   31.0820 H   0  0  0  0  0  0  0  0  0  0  0  0
   26.3210    8.3860   31.8740 C   0  0  1  0  0  0  0  0  0  0  0  0
   27.1590    7.4280   32.7580 C   0  0  0  0  0  0  0  0  0  0  0  0
   28.5920    7.5270   32.2130 C   0  0  0  0  0  0  0  0  0  0  0  0
   28.6030    8.5490   31.1750 O   0  0  0  0  0  0  0  0  0  0  0  0
   27.2560    8.7050   30.6730 C   0  0  0  0  0  0  0  0  0  0  0  0
   26.7890    6.3760   32.6900 H   0  0  0  0  0  0  0  0  0  0  0  0
   27.1070    7.7310   33.8270 H   0  0  0  0  0  0  0  0  0  0  0  0
   29.3230    7.8900   32.9660 H   0  0  0  0  0  0  0  0  0  0  0  0
   28.9180    6.5740   31.7440 H   0  0  0  0  0  0  0  0  0  0  0  0
   27.1110    7.9840   29.8380 H   0  0  0  0  0  0  0  0  0  0  0  0
   27.2010    9.7620   30.3410 H   0  0  0  0  0  0  0  0  0  0  0  0
  1  3  1  0  0  0  0
  1  7  2  0  0  0  0
  1 25  1  0  0  0  0
  2 12  1  0  0  0  0
  2 19  2  0  0  0  0
  2 20  1  0  0  0  0
  3 13  2  0  0  0  0
  3 15  1  0  0  0  0
  4 18  1  0  0  0  0
  4 21  2  0  0  0  0
  4 22  1  0  0  0  0
  5  6  1  0  0  0  0
  5 10  2  0  0  0  0
  5 11  1  0  0  0  0
  6 12  2  0  0  0  0
  6 26  1  0  0  0  0
  7  8  1  0  0  0  0
  7 16  1  0  0  0  0
  8  9  2  0  0  0  0
  8 23  1  0  0  0  0
  9 13  1  0  0  0  0
  9 24  1  0  0  0  0
 10 20  1  0  0  0  0
 10 21  1  0  0  0  0
 11 18  2  0  0  0  0
 11 27  1  0  0  0  0
 12 17  1  0  0  0  0
 13 17  1  0  0  0  0
 14 20  1  0  0  0  0
 14 29  1  0  0  0  0
 14 30  1  0  0  0  0
 14 31  1  0  0  0  0
 22 32  1  0  0  0  0
 22 33  1  0  0  0  0
 28 33  1  0  0  0  0
 33 34  1  0  0  0  0
 33 37  1  0  0  0  0
 34 35  1  0  0  0  0
 34 38  1  0  0  0  0
 34 39  1  0  0  0  0
 35 36  1  0  0  0  0
 35 40  1  0  0  0  0
 35 41  1  0  0  0  0
 36 37  1  0  0  0  0
 37 42  1  0  0  0  0
 37 43  1  0  0  0  0
M  END
$$$$
