p38a_2s
 OpenBabel02232411163D
Structure written by MMmdl.
 54 57  0  0  1  0  0  0  0  0999 V2000
   38.2730   36.5460   17.1020 C   0  0  0  0  0  0  0  0  0  0  0  0
   34.6770   34.9980   21.1160 C   0  0  0  0  0  0  0  0  0  0  0  0
   37.4480   36.0770   18.1190 C   0  0  0  0  0  0  0  0  0  0  0  0
   33.9650   38.9740   23.7810 C   0  0  0  0  0  0  0  0  0  0  0  0
   34.6970   37.8610   21.3710 C   0  0  0  0  0  0  0  0  0  0  0  0
   35.0250   37.2650   20.1040 C   0  0  0  0  0  0  0  0  0  0  0  0
   37.6670   36.7530   15.8550 C   0  0  0  0  0  0  0  0  0  0  0  0
   36.3190   36.4900   15.6000 C   0  0  0  0  0  0  0  0  0  0  0  0
   35.5140   36.0040   16.6350 C   0  0  0  0  0  0  0  0  0  0  0  0
   34.4530   37.0450   22.5140 C   0  0  0  0  0  0  0  0  0  0  0  0
   34.6130   39.2700   21.5460 C   0  0  0  0  0  0  0  0  0  0  0  0
   35.0270   35.9170   20.0030 C   0  0  0  0  0  0  0  0  0  0  0  0
   36.0850   35.7890   17.8930 C   0  0  0  0  0  0  0  0  0  0  0  0
   37.9410   35.8970   19.3390 F   0  0  0  0  0  0  0  0  0  0  0  0
   35.3070   35.1540   18.8690 O   0  0  0  0  0  0  0  0  0  0  0  0
   34.2720   39.8370   22.7100 N   0  0  0  0  0  0  0  0  0  0  0  0
   34.5100   33.8040   21.0270 O   0  0  0  0  0  0  0  0  0  0  0  0
   34.5810   35.6470   22.4060 N   0  0  0  0  0  0  0  0  0  0  0  0
   34.0780   37.5930   23.7220 N   0  0  0  0  0  0  0  0  0  0  0  0
   33.4510   39.5660   24.9070 N   0  0  0  0  0  0  0  0  0  0  0  0
   39.3280   36.7780   17.2760 H   0  0  0  0  0  0  0  0  0  0  0  0
   35.2630   37.9240   19.2670 H   0  0  0  0  0  0  0  0  0  0  0  0
   35.8820   36.6750   14.6170 H   0  0  0  0  0  0  0  0  0  0  0  0
   34.4520   35.8080   16.4550 H   0  0  0  0  0  0  0  0  0  0  0  0
   34.8280   39.9460   20.7000 H   0  0  0  0  0  0  0  0  0  0  0  0
   33.5360   40.6010   25.0160 H   0  0  0  0  0  0  0  0  0  0  0  0
   38.4040   37.2640   14.8720 F   0  0  0  0  0  0  0  0  0  0  0  0
   31.7260   38.8390   28.2350 C   0  0  0  0  0  0  0  0  0  0  0  0
   32.0820   39.6320   26.9690 C   0  0  0  0  0  0  0  0  0  0  0  0
   33.0890   38.8100   26.1390 C   0  0  0  0  0  0  0  0  0  0  0  0
   34.3340   38.4870   26.9890 C   0  0  0  0  0  0  0  0  0  0  0  0
   33.8930   37.7500   28.2600 C   0  0  0  0  0  0  0  0  0  0  0  0
   32.9050   38.5030   29.0000 O   0  0  0  0  0  0  0  0  0  0  0  0
   31.1800   37.9030   27.9760 H   0  0  0  0  0  0  0  0  0  0  0  0
   31.1510   39.4610   28.9580 H   0  0  0  0  0  0  0  0  0  0  0  0
   32.5260   40.6170   27.2490 H   0  0  0  0  0  0  0  0  0  0  0  0
   31.1640   39.8200   26.3650 H   0  0  0  0  0  0  0  0  0  0  0  0
   32.5720   37.8620   25.8200 H   0  0  0  0  0  0  0  0  0  0  0  0
   35.0430   37.8420   26.4180 H   0  0  0  0  0  0  0  0  0  0  0  0
   34.8660   39.4330   27.2550 H   0  0  0  0  0  0  0  0  0  0  0  0
   33.4670   36.7490   28.0050 H   0  0  0  0  0  0  0  0  0  0  0  0
   34.7280   37.6730   28.9930 H   0  0  0  0  0  0  0  0  0  0  0  0
   34.5280   34.7780   23.6130 C   0  0  0  0  0  0  0  0  0  0  0  0
   35.1040   33.8310   23.4050 H   0  0  0  0  0  0  0  0  0  0  0  0
   35.0580   35.3120   24.4510 H   0  0  0  0  0  0  0  0  0  0  0  0
   33.0830   34.3730   24.0350 C   0  0  2  0  0  0  0  0  0  0  0  0
   32.1080   35.2700   23.5120 O   0  0  0  0  0  0  0  0  0  0  0  0
   32.3050   36.1710   23.8790 H   0  0  0  0  0  0  0  0  0  0  0  0
   32.9800   34.3570   25.5800 C   0  0  0  0  0  0  0  0  0  0  0  0
   33.8530   33.8520   26.0560 H   0  0  0  0  0  0  0  0  0  0  0  0
   32.0230   33.9000   25.9250 H   0  0  0  0  0  0  0  0  0  0  0  0
   32.7990   33.3820   23.6070 H   0  0  0  0  0  0  0  0  0  0  0  0
   32.9010   35.7030   26.0710 O   0  0  0  0  0  0  0  0  0  0  0  0
   33.5480   36.2680   25.5870 H   0  0  0  0  0  0  0  0  0  0  0  0
  1  3  2  0  0  0  0
  1  7  1  0  0  0  0
  1 21  1  0  0  0  0
  2 12  1  0  0  0  0
  2 17  2  0  0  0  0
  2 18  1  0  0  0  0
  3 13  1  0  0  0  0
  3 14  1  0  0  0  0
  4 16  2  0  0  0  0
  4 19  1  0  0  0  0
  4 20  1  0  0  0  0
  5  6  1  0  0  0  0
  5 10  1  0  0  0  0
  5 11  2  0  0  0  0
  6 12  2  0  0  0  0
  6 22  1  0  0  0  0
  7  8  2  0  0  0  0
  7 27  1  0  0  0  0
  8  9  1  0  0  0  0
  8 23  1  0  0  0  0
  9 13  2  0  0  0  0
  9 24  1  0  0  0  0
 10 18  1  0  0  0  0
 10 19  2  0  0  0  0
 11 16  1  0  0  0  0
 11 25  1  0  0  0  0
 12 15  1  0  0  0  0
 13 15  1  0  0  0  0
 18 43  1  0  0  0  0
 20 26  1  0  0  0  0
 20 30  1  0  0  0  0
 28 29  1  0  0  0  0
 28 33  1  0  0  0  0
 28 34  1  0  0  0  0
 28 35  1  0  0  0  0
 29 30  1  0  0  0  0
 29 36  1  0  0  0  0
 29 37  1  0  0  0  0
 30 31  1  0  0  0  0
 30 38  1  0  0  0  0
 31 32  1  0  0  0  0
 31 39  1  0  0  0  0
 31 40  1  0  0  0  0
 32 33  1  0  0  0  0
 32 41  1  0  0  0  0
 32 42  1  0  0  0  0
 43 44  1  0  0  0  0
 43 45  1  0  0  0  0
 43 46  1  0  0  0  0
 46 47  1  0  0  0  0
 46 49  1  0  0  0  0
 46 52  1  1  0  0  0
 47 48  1  0  0  0  0
 49 50  1  0  0  0  0
 49 51  1  0  0  0  0
 49 53  1  0  0  0  0
 53 54  1  0  0  0  0
M  END
$$$$
