p38a_3flw
 OpenBabel02232411163D
Structure written by MMmdl.
 49 51  0  0  0  0  0  0  0  0999 V2000
   38.2630   36.5200   17.1800 C   0  0  0  0  0  0  0  0  0  0  0  0
   37.6250   36.6680   15.9410 C   0  0  0  0  0  0  0  0  0  0  0  0
   34.2660   39.8340   27.4280 C   0  0  0  0  0  0  0  0  0  0  0  0
   33.9180   39.2050   28.7820 C   0  0  0  0  0  0  0  0  0  0  0  0
   31.9960   39.4680   26.2950 C   0  0  0  0  0  0  0  0  0  0  0  0
   34.0650   35.0870   23.7500 C   0  0  0  0  0  0  0  0  0  0  0  0
   37.9970   35.9410   19.4450 F   0  0  0  0  0  0  0  0  0  0  0  0
   37.4720   36.0690   18.2330 C   0  0  0  0  0  0  0  0  0  0  0  0
   38.3290   37.1670   14.9270 F   0  0  0  0  0  0  0  0  0  0  0  0
   36.2800   36.3600   15.7260 C   0  0  0  0  0  0  0  0  0  0  0  0
   35.5080   35.8980   16.7980 C   0  0  0  0  0  0  0  0  0  0  0  0
   36.1100   35.7460   18.0500 C   0  0  0  0  0  0  0  0  0  0  0  0
   35.3730   35.1410   19.0780 O   0  0  0  0  0  0  0  0  0  0  0  0
   35.0340   35.9750   20.1420 C   0  0  0  0  0  0  0  0  0  0  0  0
   35.0640   37.3270   20.1630 C   0  0  0  0  0  0  0  0  0  0  0  0
   34.7330   38.0060   21.3860 C   0  0  0  0  0  0  0  0  0  0  0  0
   34.6970   39.4200   21.5000 C   0  0  0  0  0  0  0  0  0  0  0  0
   34.4530   40.0540   22.6580 N   0  0  0  0  0  0  0  0  0  0  0  0
   34.5870   35.1310   21.2830 C   0  0  0  0  0  0  0  0  0  0  0  0
   34.4050   33.9350   21.2500 O   0  0  0  0  0  0  0  0  0  0  0  0
   34.3640   35.8560   22.5090 N   0  0  0  0  0  0  0  0  0  0  0  0
   34.4340   37.2550   22.5610 C   0  0  0  0  0  0  0  0  0  0  0  0
   34.1840   37.8730   23.7630 N   0  0  0  0  0  0  0  0  0  0  0  0
   34.2310   39.2540   23.7920 C   0  0  0  0  0  0  0  0  0  0  0  0
   34.0990   39.8980   25.0050 N   0  0  0  0  0  0  0  0  0  0  0  0
   33.5210   39.2300   26.2150 C   0  0  0  0  0  0  0  0  0  0  0  0
   31.1890   39.0290   25.0640 C   0  0  0  0  0  0  0  0  0  0  0  0
   31.3240   37.6320   24.7740 O   0  0  0  0  0  0  0  0  0  0  0  0
   34.4640   37.8850   28.9450 O   0  0  0  0  0  0  0  0  0  0  0  0
   39.3150   36.7840   17.3200 H   0  0  0  0  0  0  0  0  0  0  0  0
   34.0330   40.9300   27.4940 H   0  0  0  0  0  0  0  0  0  0  0  0
   35.3670   39.7340   27.2540 H   0  0  0  0  0  0  0  0  0  0  0  0
   34.4150   39.7820   29.6020 H   0  0  0  0  0  0  0  0  0  0  0  0
   32.8180   39.1650   28.9470 H   0  0  0  0  0  0  0  0  0  0  0  0
   31.6080   38.9190   27.1870 H   0  0  0  0  0  0  0  0  0  0  0  0
   31.8170   40.5610   26.4540 H   0  0  0  0  0  0  0  0  0  0  0  0
   34.6590   35.4950   24.6120 H   0  0  0  0  0  0  0  0  0  0  0  0
   32.9730   35.1640   23.9930 H   0  0  0  0  0  0  0  0  0  0  0  0
   34.3340   34.0070   23.6070 H   0  0  0  0  0  0  0  0  0  0  0  0
   35.8180   36.4920   14.7450 H   0  0  0  0  0  0  0  0  0  0  0  0
   34.4460   35.6770   16.6500 H   0  0  0  0  0  0  0  0  0  0  0  0
   35.3450   37.9310   19.2970 H   0  0  0  0  0  0  0  0  0  0  0  0
   34.8560   40.0490   20.6080 H   0  0  0  0  0  0  0  0  0  0  0  0
   33.9900   40.9340   25.0170 H   0  0  0  0  0  0  0  0  0  0  0  0
   33.7310   38.1290   26.1650 H   0  0  0  0  0  0  0  0  0  0  0  0
   30.0990   39.1430   25.2650 H   0  0  0  0  0  0  0  0  0  0  0  0
   31.4970   39.6110   24.1670 H   0  0  0  0  0  0  0  0  0  0  0  0
   32.2770   37.4440   24.5980 H   0  0  0  0  0  0  0  0  0  0  0  0
   34.1100   37.2990   28.2320 H   0  0  0  0  0  0  0  0  0  0  0  0
  1  2  2  0  0  0  0
  1  8  1  0  0  0  0
  1 30  1  0  0  0  0
  2  9  1  0  0  0  0
  2 10  1  0  0  0  0
  3  4  1  0  0  0  0
  3 26  1  0  0  0  0
  3 31  1  0  0  0  0
  3 32  1  0  0  0  0
  4 29  1  0  0  0  0
  4 33  1  0  0  0  0
  4 34  1  0  0  0  0
  5 26  1  0  0  0  0
  5 27  1  0  0  0  0
  5 35  1  0  0  0  0
  5 36  1  0  0  0  0
  6 21  1  0  0  0  0
  6 37  1  0  0  0  0
  6 38  1  0  0  0  0
  6 39  1  0  0  0  0
  7  8  1  0  0  0  0
  8 12  2  0  0  0  0
 10 11  2  0  0  0  0
 10 40  1  0  0  0  0
 11 12  1  0  0  0  0
 11 41  1  0  0  0  0
 12 13  1  0  0  0  0
 13 14  1  0  0  0  0
 14 15  2  0  0  0  0
 14 19  1  0  0  0  0
 15 16  1  0  0  0  0
 15 42  1  0  0  0  0
 16 17  2  0  0  0  0
 16 22  1  0  0  0  0
 17 18  1  0  0  0  0
 17 43  1  0  0  0  0
 18 24  2  0  0  0  0
 19 20  2  0  0  0  0
 19 21  1  0  0  0  0
 21 22  1  0  0  0  0
 22 23  2  0  0  0  0
 23 24  1  0  0  0  0
 24 25  1  0  0  0  0
 25 26  1  0  0  0  0
 25 44  1  0  0  0  0
 26 45  1  0  0  0  0
 27 28  1  0  0  0  0
 27 46  1  0  0  0  0
 27 47  1  0  0  0  0
 28 48  1  0  0  0  0
 29 49  1  0  0  0  0
M  END
$$$$
