23
 OpenBabel02232411163D
Structure written by MMmdl.
 43 46  0  0  0  0  0  0  0  0999 V2000
    3.7830  -49.7380    6.1200 O   0  0  0  0  0  0  0  0  0  0  0  0
    2.9640  -48.8920    6.5290 C   0  0  0  0  0  0  0  0  0  0  0  0
    3.2200  -47.8090    7.0730 O   0  5  0  0  0  0  0  0  0  0  0  0
    1.4980  -49.3150    6.3820 C   0  0  0  0  0  0  0  0  0  0  0  0
    1.1700  -50.9730    6.8700 S   0  0  0  0  0  0  0  0  0  0  0  0
   -0.5370  -50.8310    6.5420 C   0  0  0  0  0  0  0  0  0  0  0  0
   -1.5200  -51.7990    6.7290 C   0  0  0  0  0  0  0  0  0  0  0  0
   -2.8340  -51.4730    6.3910 C   0  0  0  0  0  0  0  0  0  0  0  0
   -3.1410  -50.2030    5.8720 C   0  0  0  0  0  0  0  0  0  0  0  0
   -2.1520  -49.2370    5.6900 C   0  0  0  0  0  0  0  0  0  0  0  0
   -0.8230  -49.5380    6.0320 C   0  0  0  0  0  0  0  0  0  0  0  0
    0.3730  -48.6840    5.9630 C   0  0  0  0  0  0  0  0  0  0  0  0
    0.2820  -47.2710    5.4770 C   0  0  0  0  0  0  0  0  0  0  0  0
    0.2730  -46.2490    6.6240 C   0  0  0  0  0  0  0  0  0  0  0  0
   -0.8850  -46.4050    7.6000 C   0  0  0  0  0  0  0  0  0  0  0  0
   -2.0680  -45.8560    6.9050 O   0  0  0  0  0  0  0  0  0  0  0  0
   -3.2500  -45.8570    7.5850 C   0  0  0  0  0  0  0  0  0  0  0  0
   -5.7750  -45.6190    8.8020 C   0  0  0  0  0  0  0  0  0  0  0  0
   -4.7870  -46.3820    9.3750 C   0  0  0  0  0  0  0  0  0  0  0  0
   -3.5050  -46.5050    8.7790 C   0  0  0  0  0  0  0  0  0  0  0  0
   -1.2930  -52.7880    7.1330 H   0  0  0  0  0  0  0  0  0  0  0  0
   -3.6310  -52.2030    6.5300 H   0  0  0  0  0  0  0  0  0  0  0  0
   -4.1770  -49.9770    5.6100 H   0  0  0  0  0  0  0  0  0  0  0  0
   -2.4330  -48.2620    5.2920 H   0  0  0  0  0  0  0  0  0  0  0  0
   -0.6540  -47.1390    4.8770 H   0  0  0  0  0  0  0  0  0  0  0  0
    1.1530  -47.0370    4.8160 H   0  0  0  0  0  0  0  0  0  0  0  0
    0.2310  -45.2210    6.1930 H   0  0  0  0  0  0  0  0  0  0  0  0
    1.2230  -46.3630    7.2130 H   0  0  0  0  0  0  0  0  0  0  0  0
   -0.7480  -45.7680    8.5000 H   0  0  0  0  0  0  0  0  0  0  0  0
   -1.1120  -47.4660    7.8300 H   0  0  0  0  0  0  0  0  0  0  0  0
   -2.7750  -47.1250    9.2870 H   0  0  0  0  0  0  0  0  0  0  0  0
   -5.5450  -44.9690    7.5510 C   0  0  0  0  0  0  0  0  0  0  0  0
   -4.2780  -45.0870    6.9190 C   0  0  0  0  0  0  0  0  0  0  0  0
   -4.0680  -44.4850    5.6460 C   0  0  0  0  0  0  0  0  0  0  0  0
   -5.0710  -43.7710    5.0350 C   0  0  0  0  0  0  0  0  0  0  0  0
   -6.3390  -43.6480    5.6650 C   0  0  0  0  0  0  0  0  0  0  0  0
   -6.5740  -44.2310    6.8870 C   0  0  0  0  0  0  0  0  0  0  0  0
   -3.1060  -44.6260    5.1510 H   0  0  0  0  0  0  0  0  0  0  0  0
   -4.9120  -43.3010    4.0670 H   0  0  0  0  0  0  0  0  0  0  0  0
   -7.1230  -43.0920    5.1570 H   0  0  0  0  0  0  0  0  0  0  0  0
   -7.5520  -44.1510    7.3610 H   0  0  0  0  0  0  0  0  0  0  0  0
   -4.9810  -46.9180   10.3080 H   0  0  0  0  0  0  0  0  0  0  0  0
   -6.7510  -45.5200    9.2760 H   0  0  0  0  0  0  0  0  0  0  0  0
  1  2  2  0  0  0  0
  2  3  1  0  0  0  0
  2  4  1  0  0  0  0
  4  5  1  0  0  0  0
  4 12  2  0  0  0  0
  5  6  1  0  0  0  0
  6  7  2  0  0  0  0
  6 11  1  0  0  0  0
  7  8  1  0  0  0  0
  7 21  1  0  0  0  0
  8  9  2  0  0  0  0
  8 22  1  0  0  0  0
  9 10  1  0  0  0  0
  9 23  1  0  0  0  0
 10 11  2  0  0  0  0
 10 24  1  0  0  0  0
 11 12  1  0  0  0  0
 12 13  1  0  0  0  0
 13 25  1  0  0  0  0
 13 26  1  0  0  0  0
 13 14  1  0  0  0  0
 14 15  1  0  0  0  0
 14 27  1  0  0  0  0
 14 28  1  0  0  0  0
 15 16  1  0  0  0  0
 15 29  1  0  0  0  0
 15 30  1  0  0  0  0
 16 17  1  0  0  0  0
 17 20  2  0  0  0  0
 17 33  1  0  0  0  0
 18 19  2  0  0  0  0
 18 32  1  0  0  0  0
 18 43  1  0  0  0  0
 19 20  1  0  0  0  0
 19 42  1  0  0  0  0
 20 31  1  0  0  0  0
 32 33  2  0  0  0  0
 32 37  1  0  0  0  0
 33 34  1  0  0  0  0
 34 35  2  0  0  0  0
 34 38  1  0  0  0  0
 35 36  1  0  0  0  0
 35 39  1  0  0  0  0
 36 37  2  0  0  0  0
 36 40  1  0  0  0  0
 37 41  1  0  0  0  0
M  CHG  1   3  -1
M  END
$$$$
