p38a_3fln
 OpenBabel02232411163D
Structure written by MMmdl.
 46 49  0  0  0  0  0  0  0  0999 V2000
   33.3860   37.6150   26.5160 C   0  0  0  0  0  0  0  0  0  0  0  0
   32.3150   36.7450   25.8420 C   0  0  0  0  0  0  0  0  0  0  0  0
   30.9740   38.6740   25.3010 C   0  0  0  0  0  0  0  0  0  0  0  0
   31.8480   39.5950   26.1520 C   0  0  0  0  0  0  0  0  0  0  0  0
   36.4210   36.2360   15.5590 C   0  0  0  0  0  0  0  0  0  0  0  0
   30.9970   37.3370   25.8350 O   0  0  0  0  0  0  0  0  0  0  0  0
   34.7430   34.9620   21.0890 C   0  0  0  0  0  0  0  0  0  0  0  0
   35.7670   35.7010   16.6630 C   0  0  0  0  0  0  0  0  0  0  0  0
   34.2560   38.9550   23.7750 C   0  0  0  0  0  0  0  0  0  0  0  0
   33.3170   39.1150   26.1930 C   0  0  0  0  0  0  0  0  0  0  0  0
   34.9130   37.8170   21.3400 C   0  0  0  0  0  0  0  0  0  0  0  0
   35.3130   37.1960   20.1060 C   0  0  0  0  0  0  0  0  0  0  0  0
   37.7180   36.7190   15.7730 C   0  0  0  0  0  0  0  0  0  0  0  0
   38.3670   36.6660   17.0100 C   0  0  0  0  0  0  0  0  0  0  0  0
   37.6730   36.1630   18.1150 C   0  0  0  0  0  0  0  0  0  0  0  0
   34.5920   37.0160   22.4760 C   0  0  0  0  0  0  0  0  0  0  0  0
   34.8390   39.2260   21.5100 C   0  0  0  0  0  0  0  0  0  0  0  0
   35.2630   35.8480   20.0140 C   0  0  0  0  0  0  0  0  0  0  0  0
   36.3730   35.6820   17.9350 C   0  0  0  0  0  0  0  0  0  0  0  0
   34.3460   34.7560   23.5560 C   0  0  0  0  0  0  0  0  0  0  0  0
   34.5510   35.1870   16.5450 F   0  0  0  0  0  0  0  0  0  0  0  0
   38.3440   37.2920   14.7480 F   0  0  0  0  0  0  0  0  0  0  0  0
   35.6370   35.0430   18.9400 O   0  0  0  0  0  0  0  0  0  0  0  0
   34.5160   39.8040   22.6750 N   0  0  0  0  0  0  0  0  0  0  0  0
   34.4840   33.7850   20.9650 O   0  0  0  0  0  0  0  0  0  0  0  0
   34.5690   35.6150   22.3600 N   0  0  0  0  0  0  0  0  0  0  0  0
   34.2760   37.5810   23.6870 N   0  0  0  0  0  0  0  0  0  0  0  0
   34.0600   39.5980   24.9820 N   0  0  0  0  0  0  0  0  0  0  0  0
   33.2790   37.5220   27.6300 H   0  0  0  0  0  0  0  0  0  0  0  0
   34.3980   37.2130   26.2510 H   0  0  0  0  0  0  0  0  0  0  0  0
   32.5800   36.5240   24.7860 H   0  0  0  0  0  0  0  0  0  0  0  0
   32.1470   35.8120   26.4290 H   0  0  0  0  0  0  0  0  0  0  0  0
   29.9010   38.9520   25.3810 H   0  0  0  0  0  0  0  0  0  0  0  0
   31.3180   38.6590   24.2440 H   0  0  0  0  0  0  0  0  0  0  0  0
   31.7810   40.6370   25.7680 H   0  0  0  0  0  0  0  0  0  0  0  0
   31.4740   39.5940   27.2060 H   0  0  0  0  0  0  0  0  0  0  0  0
   35.9400   36.3000   14.5830 H   0  0  0  0  0  0  0  0  0  0  0  0
   33.8450   39.6680   27.0350 H   0  0  0  0  0  0  0  0  0  0  0  0
   35.6580   37.8390   19.2940 H   0  0  0  0  0  0  0  0  0  0  0  0
   39.3850   37.0420   17.1310 H   0  0  0  0  0  0  0  0  0  0  0  0
   38.1430   36.1790   19.1020 H   0  0  0  0  0  0  0  0  0  0  0  0
   35.0370   39.8940   20.6550 H   0  0  0  0  0  0  0  0  0  0  0  0
   34.7660   35.2490   24.4740 H   0  0  0  0  0  0  0  0  0  0  0  0
   33.2490   34.5760   23.7050 H   0  0  0  0  0  0  0  0  0  0  0  0
   34.8640   33.7710   23.4190 H   0  0  0  0  0  0  0  0  0  0  0  0
   34.0360   40.6450   24.9450 H   0  0  0  0  0  0  0  0  0  0  0  0
  1  2  1  0  0  0  0
  1 10  1  0  0  0  0
  1 29  1  0  0  0  0
  1 30  1  0  0  0  0
  2  6  1  0  0  0  0
  2 31  1  0  0  0  0
  2 32  1  0  0  0  0
  3  4  1  0  0  0  0
  3  6  1  0  0  0  0
  3 33  1  0  0  0  0
  3 34  1  0  0  0  0
  4 10  1  0  0  0  0
  4 35  1  0  0  0  0
  4 36  1  0  0  0  0
  5  8  2  0  0  0  0
  5 13  1  0  0  0  0
  5 37  1  0  0  0  0
  7 18  1  0  0  0  0
  7 25  2  0  0  0  0
  7 26  1  0  0  0  0
  8 19  1  0  0  0  0
  8 21  1  0  0  0  0
  9 24  2  0  0  0  0
  9 27  1  0  0  0  0
  9 28  1  0  0  0  0
 10 28  1  0  0  0  0
 10 38  1  0  0  0  0
 11 12  1  0  0  0  0
 11 16  1  0  0  0  0
 11 17  2  0  0  0  0
 12 18  2  0  0  0  0
 12 39  1  0  0  0  0
 13 14  2  0  0  0  0
 13 22  1  0  0  0  0
 14 15  1  0  0  0  0
 14 40  1  0  0  0  0
 15 19  2  0  0  0  0
 15 41  1  0  0  0  0
 16 26  1  0  0  0  0
 16 27  2  0  0  0  0
 17 24  1  0  0  0  0
 17 42  1  0  0  0  0
 18 23  1  0  0  0  0
 19 23  1  0  0  0  0
 20 26  1  0  0  0  0
 20 43  1  0  0  0  0
 20 44  1  0  0  0  0
 20 45  1  0  0  0  0
 28 46  1  0  0  0  0
M  END
$$$$
