p38a_2o
 OpenBabel02232411163D
Structure written by MMmdl.
 55 58  0  0  0  0  0  0  0  0999 V2000
   38.1840   36.4710   17.2760 C   0  0  0  0  0  0  0  0  0  0  0  0
   34.5290   35.1470   21.4040 C   0  0  0  0  0  0  0  0  0  0  0  0
   37.3790   36.0580   18.3340 C   0  0  0  0  0  0  0  0  0  0  0  0
   34.1610   39.2110   24.0120 C   0  0  0  0  0  0  0  0  0  0  0  0
   34.6670   38.0210   21.5720 C   0  0  0  0  0  0  0  0  0  0  0  0
   34.9830   37.3720   20.3280 C   0  0  0  0  0  0  0  0  0  0  0  0
   37.5490   36.6370   16.0370 C   0  0  0  0  0  0  0  0  0  0  0  0
   36.1910   36.3880   15.8290 C   0  0  0  0  0  0  0  0  0  0  0  0
   35.4040   35.9710   16.9090 C   0  0  0  0  0  0  0  0  0  0  0  0
   34.3510   37.2440   22.7250 C   0  0  0  0  0  0  0  0  0  0  0  0
   34.6620   39.4330   21.7320 C   0  0  0  0  0  0  0  0  0  0  0  0
   34.9500   36.0220   20.2760 C   0  0  0  0  0  0  0  0  0  0  0  0
   36.0030   35.7970   18.1600 C   0  0  0  0  0  0  0  0  0  0  0  0
   37.9070   35.9000   19.5410 F   0  0  0  0  0  0  0  0  0  0  0  0
   35.2480   35.2080   19.1840 O   0  0  0  0  0  0  0  0  0  0  0  0
   34.4240   40.0410   22.9040 N   0  0  0  0  0  0  0  0  0  0  0  0
   34.4050   33.9440   21.3520 O   0  0  0  0  0  0  0  0  0  0  0  0
   34.2780   35.8410   22.6450 N   0  0  0  0  0  0  0  0  0  0  0  0
   34.1180   37.8310   23.9410 N   0  0  0  0  0  0  0  0  0  0  0  0
   33.9290   39.8060   25.2270 N   0  0  0  0  0  0  0  0  0  0  0  0
   39.2480   36.6910   17.4100 H   0  0  0  0  0  0  0  0  0  0  0  0
   35.2490   37.9980   19.4720 H   0  0  0  0  0  0  0  0  0  0  0  0
   35.7320   36.5290   14.8470 H   0  0  0  0  0  0  0  0  0  0  0  0
   34.3320   35.7970   16.7680 H   0  0  0  0  0  0  0  0  0  0  0  0
   34.8510   40.0810   20.8590 H   0  0  0  0  0  0  0  0  0  0  0  0
   33.9330   40.8390   25.3100 H   0  0  0  0  0  0  0  0  0  0  0  0
   38.2740   37.0900   15.0170 F   0  0  0  0  0  0  0  0  0  0  0  0
   33.5820   40.7940   28.3050 C   0  0  0  0  0  0  0  0  0  0  0  0
   32.7350   39.8790   27.4100 C   0  0  0  0  0  0  0  0  0  0  0  0
   33.5660   39.0090   26.4450 C   0  0  0  0  0  0  0  0  0  0  0  0
   34.8250   38.4370   27.1300 C   0  0  0  0  0  0  0  0  0  0  0  0
   35.5660   39.4900   27.9550 C   0  0  0  0  0  0  0  0  0  0  0  0
   34.6830   40.1010   28.9260 O   0  0  0  0  0  0  0  0  0  0  0  0
   32.9890   41.1480   29.1810 H   0  0  0  0  0  0  0  0  0  0  0  0
   33.9880   41.6480   27.7200 H   0  0  0  0  0  0  0  0  0  0  0  0
   32.0190   40.5090   26.8280 H   0  0  0  0  0  0  0  0  0  0  0  0
   32.1320   39.1840   28.0480 H   0  0  0  0  0  0  0  0  0  0  0  0
   32.9150   38.1480   26.1090 H   0  0  0  0  0  0  0  0  0  0  0  0
   34.4930   37.5970   27.7920 H   0  0  0  0  0  0  0  0  0  0  0  0
   35.5110   38.0090   26.3590 H   0  0  0  0  0  0  0  0  0  0  0  0
   36.3430   39.0280   28.6050 H   0  0  0  0  0  0  0  0  0  0  0  0
   35.9830   40.2880   27.3020 H   0  0  0  0  0  0  0  0  0  0  0  0
   33.8740   35.0510   23.8650 C   0  0  0  0  0  0  0  0  0  0  0  0
   34.1740   33.9830   23.6810 H   0  0  0  0  0  0  0  0  0  0  0  0
   34.4470   35.4650   24.7470 H   0  0  0  0  0  0  0  0  0  0  0  0
   32.3720   35.1720   24.1320 C   0  0  0  0  0  0  0  0  0  0  0  0
   32.1670   36.1950   24.5710 H   0  0  0  0  0  0  0  0  0  0  0  0
   31.7970   35.1560   23.1670 H   0  0  0  0  0  0  0  0  0  0  0  0
   31.7060   33.9480   25.2210 S   0  0  0  0  0  0  0  0  0  0  0  0
   32.6070   33.6600   26.3560 O   0  0  0  0  0  0  0  0  0  0  0  0
   31.4430   32.7090   24.4500 O   0  0  0  0  0  0  0  0  0  0  0  0
   30.2200   34.6510   25.7700 C   0  0  0  0  0  0  0  0  0  0  0  0
   29.5770   35.0140   24.9270 H   0  0  0  0  0  0  0  0  0  0  0  0
   29.5990   33.9440   26.3770 H   0  0  0  0  0  0  0  0  0  0  0  0
   30.3830   35.5450   26.4340 H   0  0  0  0  0  0  0  0  0  0  0  0
  1  3  2  0  0  0  0
  1  7  1  0  0  0  0
  1 21  1  0  0  0  0
  2 12  1  0  0  0  0
  2 17  2  0  0  0  0
  2 18  1  0  0  0  0
  3 13  1  0  0  0  0
  3 14  1  0  0  0  0
  4 16  2  0  0  0  0
  4 19  1  0  0  0  0
  4 20  1  0  0  0  0
  5  6  1  0  0  0  0
  5 10  1  0  0  0  0
  5 11  2  0  0  0  0
  6 12  2  0  0  0  0
  6 22  1  0  0  0  0
  7  8  2  0  0  0  0
  7 27  1  0  0  0  0
  8  9  1  0  0  0  0
  8 23  1  0  0  0  0
  9 13  2  0  0  0  0
  9 24  1  0  0  0  0
 10 18  1  0  0  0  0
 10 19  2  0  0  0  0
 11 16  1  0  0  0  0
 11 25  1  0  0  0  0
 12 15  1  0  0  0  0
 13 15  1  0  0  0  0
 18 43  1  0  0  0  0
 20 26  1  0  0  0  0
 20 30  1  0  0  0  0
 28 29  1  0  0  0  0
 28 33  1  0  0  0  0
 28 34  1  0  0  0  0
 28 35  1  0  0  0  0
 29 30  1  0  0  0  0
 29 36  1  0  0  0  0
 29 37  1  0  0  0  0
 30 31  1  0  0  0  0
 30 38  1  0  0  0  0
 31 32  1  0  0  0  0
 31 39  1  0  0  0  0
 31 40  1  0  0  0  0
 32 33  1  0  0  0  0
 32 41  1  0  0  0  0
 32 42  1  0  0  0  0
 43 44  1  0  0  0  0
 43 45  1  0  0  0  0
 43 46  1  0  0  0  0
 46 47  1  0  0  0  0
 46 48  1  0  0  0  0
 46 49  1  0  0  0  0
 49 50  2  0  0  0  0
 49 51  2  0  0  0  0
 49 52  1  0  0  0  0
 52 53  1  0  0  0  0
 52 54  1  0  0  0  0
 52 55  1  0  0  0  0
M  END
$$$$
