47
 OpenBabel02232411163D
Structure written by MMmdl.
 43 46  0  0  0  0  0  0  0  0999 V2000
    3.9780  -50.1460    5.3460 O   0  0  0  0  0  0  0  0  0  0  0  0
    3.2720  -49.5050    6.1480 C   0  0  0  0  0  0  0  0  0  0  0  0
    3.6600  -48.6820    6.9880 O   0  5  0  0  0  0  0  0  0  0  0  0
    1.7660  -49.8260    6.0970 C   0  0  0  0  0  0  0  0  0  0  0  0
   -0.0610  -51.2070    6.1870 C   0  0  0  0  0  0  0  0  0  0  0  0
   -0.9540  -52.2800    6.3420 C   0  0  0  0  0  0  0  0  0  0  0  0
   -2.3110  -51.9980    6.2610 C   0  0  0  0  0  0  0  0  0  0  0  0
   -2.7770  -50.6860    6.0140 C   0  0  0  0  0  0  0  0  0  0  0  0
   -1.8990  -49.6220    5.8540 C   0  0  0  0  0  0  0  0  0  0  0  0
   -0.5180  -49.8610    5.9480 C   0  0  0  0  0  0  0  0  0  0  0  0
    0.6550  -49.0150    5.9010 C   0  0  0  0  0  0  0  0  0  0  0  0
    0.5780  -47.5360    5.7690 C   0  0  0  0  0  0  0  0  0  0  0  0
    0.2030  -46.9390    7.1410 C   0  0  0  0  0  0  0  0  0  0  0  0
   -0.3520  -45.5260    7.0610 C   0  0  0  0  0  0  0  0  0  0  0  0
   -1.5180  -45.4840    6.1710 O   0  0  0  0  0  0  0  0  0  0  0  0
   -2.7630  -45.4210    6.7200 C   0  0  0  0  0  0  0  0  0  0  0  0
   -4.9760  -44.5050    6.3170 C   0  0  0  0  0  0  0  0  0  0  0  0
   -3.7000  -44.7160    5.8810 C   0  0  0  0  0  0  0  0  0  0  0  0
   -0.6030  -53.2940    6.5310 H   0  0  0  0  0  0  0  0  0  0  0  0
   -3.0430  -52.7940    6.3990 H   0  0  0  0  0  0  0  0  0  0  0  0
   -3.8530  -50.5150    5.9550 H   0  0  0  0  0  0  0  0  0  0  0  0
   -2.2840  -48.6180    5.6710 H   0  0  0  0  0  0  0  0  0  0  0  0
   -0.2290  -47.2640    5.0380 H   0  0  0  0  0  0  0  0  0  0  0  0
    1.5370  -47.0970    5.4110 H   0  0  0  0  0  0  0  0  0  0  0  0
    1.1070  -46.9210    7.7950 H   0  0  0  0  0  0  0  0  0  0  0  0
   -0.5730  -47.5930    7.6110 H   0  0  0  0  0  0  0  0  0  0  0  0
    0.3180  -44.8230    6.5160 H   0  0  0  0  0  0  0  0  0  0  0  0
   -0.6420  -45.1300    8.0580 H   0  0  0  0  0  0  0  0  0  0  0  0
   -3.3660  -44.3500    4.9120 H   0  0  0  0  0  0  0  0  0  0  0  0
   -3.1330  -45.9560    7.9350 C   0  0  0  0  0  0  0  0  0  0  0  0
   -5.7020  -43.9580    5.7080 H   0  0  0  0  0  0  0  0  0  0  0  0
   -4.4660  -45.7640    8.3900 C   0  0  0  0  0  0  0  0  0  0  0  0
   -5.3870  -45.0160    7.5980 C   0  0  0  0  0  0  0  0  0  0  0  0
   -6.6880  -44.7750    8.0120 N   0  0  0  0  0  0  0  0  0  0  0  0
   -7.0720  -45.2710    9.1850 C   0  0  0  0  0  0  0  0  0  0  0  0
   -6.2120  -46.0340   10.0390 C   0  0  0  0  0  0  0  0  0  0  0  0
   -4.9260  -46.2880    9.6390 C   0  0  0  0  0  0  0  0  0  0  0  0
   -8.1070  -45.0960    9.4930 H   0  0  0  0  0  0  0  0  0  0  0  0
   -6.6060  -46.4110   10.9790 H   0  0  0  0  0  0  0  0  0  0  0  0
   -4.2490  -46.8870   10.2530 H   0  0  0  0  0  0  0  0  0  0  0  0
   -2.4510  -46.5330    8.5560 H   0  0  0  0  0  0  0  0  0  0  0  0
    1.3410  -51.1600    6.2620 N   0  0  0  0  0  0  0  0  0  0  0  0
    1.9190  -51.9800    6.4130 H   0  0  0  0  0  0  0  0  0  0  0  0
  1  2  2  0  0  0  0
  2  3  1  0  0  0  0
  2  4  1  0  0  0  0
  4 11  2  0  0  0  0
  4 42  1  0  0  0  0
  5  6  2  0  0  0  0
  5 10  1  0  0  0  0
  5 42  1  0  0  0  0
  6  7  1  0  0  0  0
  6 19  1  0  0  0  0
  7  8  2  0  0  0  0
  7 20  1  0  0  0  0
  8  9  1  0  0  0  0
  8 21  1  0  0  0  0
  9 10  2  0  0  0  0
  9 22  1  0  0  0  0
 10 11  1  0  0  0  0
 11 12  1  0  0  0  0
 12 23  1  0  0  0  0
 12 24  1  0  0  0  0
 12 13  1  0  0  0  0
 13 14  1  0  0  0  0
 13 25  1  0  0  0  0
 13 26  1  0  0  0  0
 14 15  1  0  0  0  0
 14 27  1  0  0  0  0
 14 28  1  0  0  0  0
 15 16  1  0  0  0  0
 16 18  2  0  0  0  0
 16 30  1  0  0  0  0
 17 18  1  0  0  0  0
 17 31  1  0  0  0  0
 17 33  2  0  0  0  0
 18 29  1  0  0  0  0
 30 32  2  0  0  0  0
 30 41  1  0  0  0  0
 32 33  1  0  0  0  0
 32 37  1  0  0  0  0
 33 34  1  0  0  0  0
 34 35  2  0  0  0  0
 35 36  1  0  0  0  0
 35 38  1  0  0  0  0
 36 37  2  0  0  0  0
 36 39  1  0  0  0  0
 37 40  1  0  0  0  0
 42 43  1  0  0  0  0
M  CHG  1   3  -1
M  END
$$$$
