18659-1
 OpenBabel02232411163D
Structure written by MMmdl.
 50 51  0  0  0  0  0  0  0  0999 V2000
   22.6730   13.8980   28.8560 C   0  0  0  0  0  0  0  0  0  0  0  0
   23.0400   13.6830   30.2360 O   0  0  0  0  0  0  0  0  0  0  0  0
   23.9470   12.5890   30.4400 C   0  0  0  0  0  0  0  0  0  0  0  0
   23.2870   11.2050   30.3430 C   0  0  0  0  0  0  0  0  0  0  0  0
   22.1390   11.2770   31.2640 O   0  0  0  0  0  0  0  0  0  0  0  0
   21.5140   10.1240   31.5980 C   0  0  0  0  0  0  0  0  0  0  0  0
   21.9710    8.9460   31.1150 N   0  0  0  0  0  0  0  0  0  0  0  0
   21.2530    7.8030   31.4390 C   0  0  0  0  0  0  0  0  0  0  0  0
   20.1200    7.8300   32.2460 C   0  0  0  0  0  0  0  0  0  0  0  0
   19.6510    9.0720   32.7510 C   0  0  0  0  0  0  0  0  0  0  0  0
   18.5160    9.1030   33.5220 N   0  0  0  0  0  0  0  0  0  0  0  0
   20.3590   10.2730   32.4240 C   0  0  0  0  0  0  0  0  0  0  0  0
   19.9630   11.5670   32.8230 C   0  0  0  0  0  0  0  0  0  0  0  0
   19.6870   12.6570   33.1080 N   0  0  0  0  0  0  0  0  0  0  0  0
   21.8020    6.6480   30.8410 N   0  0  0  0  0  0  0  0  0  0  0  0
   21.2050    5.3660   30.7710 C   0  0  0  0  0  0  0  0  0  0  0  0
   20.1420    5.1060   31.2930 O   0  0  0  0  0  0  0  0  0  0  0  0
   21.9970    4.3830   29.9200 C   0  0  0  0  0  0  0  0  0  0  0  0
   23.3300    4.0400   30.5190 C   0  0  0  0  0  0  0  0  0  0  0  0
   24.4560    4.8670   30.2910 C   0  0  0  0  0  0  0  0  0  0  0  0
   24.1850    5.9450   29.4530 O   0  0  0  0  0  0  0  0  0  0  0  0
   25.1960    6.9810   29.3400 C   0  0  0  0  0  0  0  0  0  0  0  0
   25.7060    4.5790   30.8500 C   0  0  0  0  0  0  0  0  0  0  0  0
   25.8550    3.4480   31.6480 C   0  0  0  0  0  0  0  0  0  0  0  0
   24.7440    2.6100   31.8620 C   0  0  0  0  0  0  0  0  0  0  0  0
   23.4900    2.8930   31.3010 C   0  0  0  0  0  0  0  0  0  0  0  0
   25.0330    1.5350   32.6780 O   0  0  0  0  0  0  0  0  0  0  0  0
   24.0360    0.4870   32.7930 C   0  0  0  0  0  0  0  0  0  0  0  0
   23.5840   14.0650   28.2370 H   0  0  0  0  0  0  0  0  0  0  0  0
   22.0910   13.0310   28.4790 H   0  0  0  0  0  0  0  0  0  0  0  0
   22.0550   14.8210   28.9230 H   0  0  0  0  0  0  0  0  0  0  0  0
   24.3070   12.7900   31.4770 H   0  0  0  0  0  0  0  0  0  0  0  0
   24.7910   12.6250   29.7050 H   0  0  0  0  0  0  0  0  0  0  0  0
   22.8850   10.9820   29.3300 H   0  0  0  0  0  0  0  0  0  0  0  0
   23.9970   10.4100   30.6770 H   0  0  0  0  0  0  0  0  0  0  0  0
   19.5730    6.9150   32.4810 H   0  0  0  0  0  0  0  0  0  0  0  0
   18.0230    8.2290   33.7850 H   0  0  0  0  0  0  0  0  0  0  0  0
   18.1220    9.9830   33.8520 H   0  0  0  0  0  0  0  0  0  0  0  0
   22.7140    6.7930   30.3390 H   0  0  0  0  0  0  0  0  0  0  0  0
   21.3880    3.4530   29.7880 H   0  0  0  0  0  0  0  0  0  0  0  0
   22.1600    4.8490   28.9100 H   0  0  0  0  0  0  0  0  0  0  0  0
   26.0770    6.5810   28.7940 H   0  0  0  0  0  0  0  0  0  0  0  0
   25.4680    7.3730   30.3430 H   0  0  0  0  0  0  0  0  0  0  0  0
   24.6610    7.7510   28.7390 H   0  0  0  0  0  0  0  0  0  0  0  0
   26.5730    5.2200   30.6670 H   0  0  0  0  0  0  0  0  0  0  0  0
   26.8260    3.2130   32.0930 H   0  0  0  0  0  0  0  0  0  0  0  0
   22.6430    2.2280   31.4700 H   0  0  0  0  0  0  0  0  0  0  0  0
   24.5700   -0.2620   33.4260 H   0  0  0  0  0  0  0  0  0  0  0  0
   23.1310    0.8720   33.3080 H   0  0  0  0  0  0  0  0  0  0  0  0
   23.8070    0.0680   31.7890 H   0  0  0  0  0  0  0  0  0  0  0  0
  1  2  1  0  0  0  0
  1 29  1  0  0  0  0
  1 30  1  0  0  0  0
  1 31  1  0  0  0  0
  2  3  1  0  0  0  0
  3  4  1  0  0  0  0
  3 32  1  0  0  0  0
  3 33  1  0  0  0  0
  4  5  1  0  0  0  0
  4 34  1  0  0  0  0
  4 35  1  0  0  0  0
  5  6  1  0  0  0  0
  6 12  2  0  0  0  0
  6  7  1  0  0  0  0
  7  8  2  0  0  0  0
  8  9  1  0  0  0  0
  8 15  1  0  0  0  0
  9 10  2  0  0  0  0
  9 36  1  0  0  0  0
 10 11  1  0  0  0  0
 10 12  1  0  0  0  0
 11 37  1  0  0  0  0
 11 38  1  0  0  0  0
 12 13  1  0  0  0  0
 13 14  3  0  0  0  0
 15 16  1  0  0  0  0
 15 39  1  0  0  0  0
 16 17  2  0  0  0  0
 16 18  1  0  0  0  0
 18 19  1  0  0  0  0
 18 40  1  0  0  0  0
 18 41  1  0  0  0  0
 19 26  2  0  0  0  0
 19 20  1  0  0  0  0
 20 21  1  0  0  0  0
 20 23  2  0  0  0  0
 21 22  1  0  0  0  0
 22 42  1  0  0  0  0
 22 43  1  0  0  0  0
 22 44  1  0  0  0  0
 23 24  1  0  0  0  0
 23 45  1  0  0  0  0
 24 25  2  0  0  0  0
 24 46  1  0  0  0  0
 25 26  1  0  0  0  0
 25 27  1  0  0  0  0
 26 47  1  0  0  0  0
 27 28  1  0  0  0  0
 28 48  1  0  0  0  0
 28 49  1  0  0  0  0
 28 50  1  0  0  0  0
M  END
$$$$
