p38a_3flw
 OpenBabel02232411163D
Structure written by MMmdl.
 49 51  0  0  0  0  0  0  0  0999 V2000
   38.2700   36.5270   17.1580 C   0  0  0  0  0  0  0  0  0  0  0  0
   37.6430   36.6900   15.9150 C   0  0  0  0  0  0  0  0  0  0  0  0
   34.5390   39.7430   27.4040 C   0  0  0  0  0  0  0  0  0  0  0  0
   34.3010   38.9750   28.7110 C   0  0  0  0  0  0  0  0  0  0  0  0
   32.2030   39.3760   26.4260 C   0  0  0  0  0  0  0  0  0  0  0  0
   34.1500   35.0510   23.7120 C   0  0  0  0  0  0  0  0  0  0  0  0
   37.9810   35.9270   19.4150 F   0  0  0  0  0  0  0  0  0  0  0  0
   37.4680   36.0660   18.1990 C   0  0  0  0  0  0  0  0  0  0  0  0
   38.3570   37.1980   14.9130 F   0  0  0  0  0  0  0  0  0  0  0  0
   36.3000   36.3870   15.6840 C   0  0  0  0  0  0  0  0  0  0  0  0
   35.5180   35.9140   16.7430 C   0  0  0  0  0  0  0  0  0  0  0  0
   36.1070   35.7480   17.9990 C   0  0  0  0  0  0  0  0  0  0  0  0
   35.3560   35.1370   19.0130 O   0  0  0  0  0  0  0  0  0  0  0  0
   35.0280   35.9620   20.0880 C   0  0  0  0  0  0  0  0  0  0  0  0
   35.0540   37.3140   20.1160 C   0  0  0  0  0  0  0  0  0  0  0  0
   34.7420   37.9860   21.3470 C   0  0  0  0  0  0  0  0  0  0  0  0
   34.7000   39.4000   21.4710 C   0  0  0  0  0  0  0  0  0  0  0  0
   34.4820   40.0250   22.6390 N   0  0  0  0  0  0  0  0  0  0  0  0
   34.6030   35.1100   21.2300 C   0  0  0  0  0  0  0  0  0  0  0  0
   34.4170   33.9140   21.1920 O   0  0  0  0  0  0  0  0  0  0  0  0
   34.4070   35.8270   22.4660 N   0  0  0  0  0  0  0  0  0  0  0  0
   34.4740   37.2250   22.5240 C   0  0  0  0  0  0  0  0  0  0  0  0
   34.2520   37.8360   23.7340 N   0  0  0  0  0  0  0  0  0  0  0  0
   34.3000   39.2150   23.7730 C   0  0  0  0  0  0  0  0  0  0  0  0
   34.2110   39.8470   24.9960 N   0  0  0  0  0  0  0  0  0  0  0  0
   33.7210   39.1550   26.2280 C   0  0  0  0  0  0  0  0  0  0  0  0
   31.3150   39.0010   25.2310 C   0  0  0  0  0  0  0  0  0  0  0  0
   31.4230   37.6210   24.8570 O   0  0  0  0  0  0  0  0  0  0  0  0
   35.2240   39.3950   29.7330 O   0  0  0  0  0  0  0  0  0  0  0  0
   39.3210   36.7870   17.3110 H   0  0  0  0  0  0  0  0  0  0  0  0
   34.2720   40.8200   27.5470 H   0  0  0  0  0  0  0  0  0  0  0  0
   35.6230   39.6970   27.1340 H   0  0  0  0  0  0  0  0  0  0  0  0
   33.3100   39.2260   29.1560 H   0  0  0  0  0  0  0  0  0  0  0  0
   34.4120   37.8760   28.5560 H   0  0  0  0  0  0  0  0  0  0  0  0
   31.8890   38.7730   27.3140 H   0  0  0  0  0  0  0  0  0  0  0  0
   32.0270   40.4560   26.6600 H   0  0  0  0  0  0  0  0  0  0  0  0
   34.7580   35.4660   24.5620 H   0  0  0  0  0  0  0  0  0  0  0  0
   33.0630   35.1140   23.9850 H   0  0  0  0  0  0  0  0  0  0  0  0
   34.4300   33.9750   23.5600 H   0  0  0  0  0  0  0  0  0  0  0  0
   35.8470   36.5320   14.7010 H   0  0  0  0  0  0  0  0  0  0  0  0
   34.4570   35.6950   16.5830 H   0  0  0  0  0  0  0  0  0  0  0  0
   35.3190   37.9220   19.2490 H   0  0  0  0  0  0  0  0  0  0  0  0
   34.8360   40.0360   20.5800 H   0  0  0  0  0  0  0  0  0  0  0  0
   34.0800   40.8800   25.0220 H   0  0  0  0  0  0  0  0  0  0  0  0
   33.9370   38.0550   26.1530 H   0  0  0  0  0  0  0  0  0  0  0  0
   30.2400   39.1030   25.5090 H   0  0  0  0  0  0  0  0  0  0  0  0
   31.5620   39.6300   24.3470 H   0  0  0  0  0  0  0  0  0  0  0  0
   32.3710   37.4300   24.6560 H   0  0  0  0  0  0  0  0  0  0  0  0
   36.1500   39.2580   29.4110 H   0  0  0  0  0  0  0  0  0  0  0  0
  1  2  2  0  0  0  0
  1  8  1  0  0  0  0
  1 30  1  0  0  0  0
  2  9  1  0  0  0  0
  2 10  1  0  0  0  0
  3  4  1  0  0  0  0
  3 26  1  0  0  0  0
  3 31  1  0  0  0  0
  3 32  1  0  0  0  0
  4 29  1  0  0  0  0
  4 33  1  0  0  0  0
  4 34  1  0  0  0  0
  5 26  1  0  0  0  0
  5 27  1  0  0  0  0
  5 35  1  0  0  0  0
  5 36  1  0  0  0  0
  6 21  1  0  0  0  0
  6 37  1  0  0  0  0
  6 38  1  0  0  0  0
  6 39  1  0  0  0  0
  7  8  1  0  0  0  0
  8 12  2  0  0  0  0
 10 11  2  0  0  0  0
 10 40  1  0  0  0  0
 11 12  1  0  0  0  0
 11 41  1  0  0  0  0
 12 13  1  0  0  0  0
 13 14  1  0  0  0  0
 14 15  2  0  0  0  0
 14 19  1  0  0  0  0
 15 16  1  0  0  0  0
 15 42  1  0  0  0  0
 16 17  2  0  0  0  0
 16 22  1  0  0  0  0
 17 18  1  0  0  0  0
 17 43  1  0  0  0  0
 18 24  2  0  0  0  0
 19 20  2  0  0  0  0
 19 21  1  0  0  0  0
 21 22  1  0  0  0  0
 22 23  2  0  0  0  0
 23 24  1  0  0  0  0
 24 25  1  0  0  0  0
 25 26  1  0  0  0  0
 25 44  1  0  0  0  0
 26 45  1  0  0  0  0
 27 28  1  0  0  0  0
 27 46  1  0  0  0  0
 27 47  1  0  0  0  0
 28 48  1  0  0  0  0
 29 49  1  0  0  0  0
M  END
$$$$
