p38a_2u
 OpenBabel02232411163D
Structure written by MMmdl.
 64 68  0  0  0  0  0  0  0  0999 V2000
   38.2950   36.5610   17.1290 C   0  0  0  0  0  0  0  0  0  0  0  0
   34.5640   35.1010   21.1790 C   0  0  0  0  0  0  0  0  0  0  0  0
   37.5000   36.1050   18.1780 C   0  0  0  0  0  0  0  0  0  0  0  0
   34.0420   39.1510   23.7770 C   0  0  0  0  0  0  0  0  0  0  0  0
   34.6630   37.9590   21.3750 C   0  0  0  0  0  0  0  0  0  0  0  0
   35.0500   37.3280   20.1430 C   0  0  0  0  0  0  0  0  0  0  0  0
   37.6570   36.7290   15.8920 C   0  0  0  0  0  0  0  0  0  0  0  0
   36.3080   36.4390   15.6740 C   0  0  0  0  0  0  0  0  0  0  0  0
   35.5350   35.9690   16.7400 C   0  0  0  0  0  0  0  0  0  0  0  0
   34.3180   37.1740   22.5190 C   0  0  0  0  0  0  0  0  0  0  0  0
   34.6250   39.3730   21.5210 C   0  0  0  0  0  0  0  0  0  0  0  0
   35.0360   35.9780   20.0790 C   0  0  0  0  0  0  0  0  0  0  0  0
   36.1370   35.7960   17.9900 C   0  0  0  0  0  0  0  0  0  0  0  0
   38.0230   35.9600   19.3890 F   0  0  0  0  0  0  0  0  0  0  0  0
   35.4010   35.1690   19.0030 O   0  0  0  0  0  0  0  0  0  0  0  0
   34.3280   39.9830   22.6760 N   0  0  0  0  0  0  0  0  0  0  0  0
   34.4160   33.9000   21.0860 O   0  0  0  0  0  0  0  0  0  0  0  0
   34.2650   35.7680   22.4230 N   0  0  0  0  0  0  0  0  0  0  0  0
   34.0320   37.7700   23.7180 N   0  0  0  0  0  0  0  0  0  0  0  0
   33.6890   39.7650   24.9560 N   0  0  0  0  0  0  0  0  0  0  0  0
   39.3490   36.8130   17.2740 H   0  0  0  0  0  0  0  0  0  0  0  0
   35.3540   37.9630   19.3090 H   0  0  0  0  0  0  0  0  0  0  0  0
   35.8460   36.5890   14.6960 H   0  0  0  0  0  0  0  0  0  0  0  0
   34.4710   35.7560   16.5920 H   0  0  0  0  0  0  0  0  0  0  0  0
   34.8450   40.0170   20.6530 H   0  0  0  0  0  0  0  0  0  0  0  0
   33.7920   40.7950   25.0440 H   0  0  0  0  0  0  0  0  0  0  0  0
   38.3640   37.2300   14.8820 F   0  0  0  0  0  0  0  0  0  0  0  0
   32.4500   39.0620   28.4980 C   0  0  0  0  0  0  0  0  0  0  0  0
   32.5080   39.7210   27.1140 C   0  0  0  0  0  0  0  0  0  0  0  0
   33.5730   39.0190   26.2460 C   0  0  0  0  0  0  0  0  0  0  0  0
   34.9340   38.9990   26.9770 C   0  0  0  0  0  0  0  0  0  0  0  0
   34.7660   38.3770   28.3690 C   0  0  0  0  0  0  0  0  0  0  0  0
   33.7460   39.0490   29.1400 O   0  0  0  0  0  0  0  0  0  0  0  0
   32.0720   38.0170   28.4240 H   0  0  0  0  0  0  0  0  0  0  0  0
   31.8450   39.6730   29.2070 H   0  0  0  0  0  0  0  0  0  0  0  0
   32.7640   40.8020   27.2250 H   0  0  0  0  0  0  0  0  0  0  0  0
   31.5120   39.6450   26.6170 H   0  0  0  0  0  0  0  0  0  0  0  0
   33.2450   37.9640   26.0300 H   0  0  0  0  0  0  0  0  0  0  0  0
   35.6670   38.3960   26.3910 H   0  0  0  0  0  0  0  0  0  0  0  0
   35.3280   40.0400   27.0690 H   0  0  0  0  0  0  0  0  0  0  0  0
   34.5080   37.2960   28.2870 H   0  0  0  0  0  0  0  0  0  0  0  0
   35.6770   38.5360   28.9900 H   0  0  0  0  0  0  0  0  0  0  0  0
   32.0040   34.0610   25.0470 C   0  0  0  0  0  0  0  0  0  0  0  0
   32.4100   35.1540   24.0370 C   0  0  0  0  0  0  0  0  0  0  0  0
   33.8530   34.8880   23.5790 C   0  0  0  0  0  0  0  0  0  0  0  0
   34.7930   35.0000   24.7900 C   0  0  0  0  0  0  0  0  0  0  0  0
   34.3990   33.9270   25.8300 C   0  0  0  0  0  0  0  0  0  0  0  0
   31.9560   33.0720   24.5180 H   0  0  0  0  0  0  0  0  0  0  0  0
   30.9890   34.3300   25.4440 H   0  0  0  0  0  0  0  0  0  0  0  0
   32.3370   36.1550   24.5320 H   0  0  0  0  0  0  0  0  0  0  0  0
   31.7030   35.1330   23.1770 H   0  0  0  0  0  0  0  0  0  0  0  0
   33.9150   33.8260   23.1900 H   0  0  0  0  0  0  0  0  0  0  0  0
   35.8520   34.8390   24.4900 H   0  0  0  0  0  0  0  0  0  0  0  0
   34.7060   36.0100   25.2660 H   0  0  0  0  0  0  0  0  0  0  0  0
   34.6620   32.9150   25.4170 H   0  0  0  0  0  0  0  0  0  0  0  0
   35.0050   34.1270   26.7550 H   0  0  0  0  0  0  0  0  0  0  0  0
   32.9530   33.9940   26.2030 N   0  0  0  0  0  0  0  0  0  0  0  0
   32.4250   33.0930   27.5760 S   0  0  0  0  0  0  0  0  0  0  0  0
   31.2140   32.3320   27.1960 O   0  0  0  0  0  0  0  0  0  0  0  0
   32.1500   34.0290   28.6790 O   0  0  0  0  0  0  0  0  0  0  0  0
   33.7030   32.0020   28.0120 C   0  0  0  0  0  0  0  0  0  0  0  0
   34.0430   31.3600   27.1590 H   0  0  0  0  0  0  0  0  0  0  0  0
   34.6030   32.5260   28.4290 H   0  0  0  0  0  0  0  0  0  0  0  0
   33.3710   31.2910   28.8190 H   0  0  0  0  0  0  0  0  0  0  0  0
  1  3  2  0  0  0  0
  1  7  1  0  0  0  0
  1 21  1  0  0  0  0
  2 12  1  0  0  0  0
  2 17  2  0  0  0  0
  2 18  1  0  0  0  0
  3 13  1  0  0  0  0
  3 14  1  0  0  0  0
  4 16  2  0  0  0  0
  4 19  1  0  0  0  0
  4 20  1  0  0  0  0
  5  6  1  0  0  0  0
  5 10  1  0  0  0  0
  5 11  2  0  0  0  0
  6 12  2  0  0  0  0
  6 22  1  0  0  0  0
  7  8  2  0  0  0  0
  7 27  1  0  0  0  0
  8  9  1  0  0  0  0
  8 23  1  0  0  0  0
  9 13  2  0  0  0  0
  9 24  1  0  0  0  0
 10 18  1  0  0  0  0
 10 19  2  0  0  0  0
 11 16  1  0  0  0  0
 11 25  1  0  0  0  0
 12 15  1  0  0  0  0
 13 15  1  0  0  0  0
 18 45  1  0  0  0  0
 20 26  1  0  0  0  0
 20 30  1  0  0  0  0
 28 29  1  0  0  0  0
 28 33  1  0  0  0  0
 28 34  1  0  0  0  0
 28 35  1  0  0  0  0
 29 30  1  0  0  0  0
 29 36  1  0  0  0  0
 29 37  1  0  0  0  0
 30 31  1  0  0  0  0
 30 38  1  0  0  0  0
 31 32  1  0  0  0  0
 31 39  1  0  0  0  0
 31 40  1  0  0  0  0
 32 33  1  0  0  0  0
 32 41  1  0  0  0  0
 32 42  1  0  0  0  0
 43 44  1  0  0  0  0
 43 48  1  0  0  0  0
 43 49  1  0  0  0  0
 43 57  1  0  0  0  0
 44 45  1  0  0  0  0
 44 50  1  0  0  0  0
 44 51  1  0  0  0  0
 45 46  1  0  0  0  0
 45 52  1  0  0  0  0
 46 47  1  0  0  0  0
 46 53  1  0  0  0  0
 46 54  1  0  0  0  0
 47 55  1  0  0  0  0
 47 56  1  0  0  0  0
 47 57  1  0  0  0  0
 57 58  1  0  0  0  0
 58 59  2  0  0  0  0
 58 60  2  0  0  0  0
 58 61  1  0  0  0  0
 61 62  1  0  0  0  0
 61 63  1  0  0  0  0
 61 64  1  0  0  0  0
M  END
$$$$
