p38a_2u
 OpenBabel02232411163D
Structure written by MMmdl.
 64 68  0  0  0  0  0  0  0  0999 V2000
   38.2710   36.5090   17.2100 C   0  0  0  0  0  0  0  0  0  0  0  0
   34.5650   35.0740   21.3470 C   0  0  0  0  0  0  0  0  0  0  0  0
   37.5070   36.0640   18.2850 C   0  0  0  0  0  0  0  0  0  0  0  0
   34.0400   39.1860   23.8440 C   0  0  0  0  0  0  0  0  0  0  0  0
   34.6870   37.9470   21.4700 C   0  0  0  0  0  0  0  0  0  0  0  0
   35.0850   37.2810   20.2610 C   0  0  0  0  0  0  0  0  0  0  0  0
   37.6070   36.6350   15.9820 C   0  0  0  0  0  0  0  0  0  0  0  0
   36.2600   36.3130   15.7990 C   0  0  0  0  0  0  0  0  0  0  0  0
   35.5170   35.8560   16.8940 C   0  0  0  0  0  0  0  0  0  0  0  0
   34.3020   37.1880   22.6140 C   0  0  0  0  0  0  0  0  0  0  0  0
   34.6760   39.3640   21.5960 C   0  0  0  0  0  0  0  0  0  0  0  0
   35.0630   35.9290   20.2320 C   0  0  0  0  0  0  0  0  0  0  0  0
   36.1470   35.7220   18.1340 C   0  0  0  0  0  0  0  0  0  0  0  0
   38.0590   35.9590   19.4870 F   0  0  0  0  0  0  0  0  0  0  0  0
   35.4470   35.1020   19.1780 O   0  0  0  0  0  0  0  0  0  0  0  0
   34.3710   39.9960   22.7370 N   0  0  0  0  0  0  0  0  0  0  0  0
   34.4380   33.8700   21.2740 O   0  0  0  0  0  0  0  0  0  0  0  0
   34.2330   35.7790   22.5570 N   0  0  0  0  0  0  0  0  0  0  0  0
   33.9940   37.8040   23.7990 N   0  0  0  0  0  0  0  0  0  0  0  0
   33.6910   39.8170   25.0130 N   0  0  0  0  0  0  0  0  0  0  0  0
   39.3240   36.7820   17.3250 H   0  0  0  0  0  0  0  0  0  0  0  0
   35.4030   37.8890   19.4120 H   0  0  0  0  0  0  0  0  0  0  0  0
   35.7760   36.4270   14.8270 H   0  0  0  0  0  0  0  0  0  0  0  0
   34.4540   35.6230   16.7730 H   0  0  0  0  0  0  0  0  0  0  0  0
   34.9240   39.9900   20.7220 H   0  0  0  0  0  0  0  0  0  0  0  0
   33.8210   40.8430   25.1030 H   0  0  0  0  0  0  0  0  0  0  0  0
   38.2870   37.1260   14.9480 F   0  0  0  0  0  0  0  0  0  0  0  0
   32.3360   39.2290   28.5380 C   0  0  0  0  0  0  0  0  0  0  0  0
   32.5160   39.9120   27.1760 C   0  0  0  0  0  0  0  0  0  0  0  0
   33.4520   39.0670   26.2860 C   0  0  0  0  0  0  0  0  0  0  0  0
   34.7820   38.7870   27.0170 C   0  0  0  0  0  0  0  0  0  0  0  0
   34.4970   38.1560   28.3850 C   0  0  0  0  0  0  0  0  0  0  0  0
   33.6060   38.9730   29.1790 O   0  0  0  0  0  0  0  0  0  0  0  0
   31.7800   38.2690   28.4310 H   0  0  0  0  0  0  0  0  0  0  0  0
   31.8400   39.9140   29.2640 H   0  0  0  0  0  0  0  0  0  0  0  0
   32.9480   40.9300   27.3280 H   0  0  0  0  0  0  0  0  0  0  0  0
   31.5260   40.0250   26.6750 H   0  0  0  0  0  0  0  0  0  0  0  0
   32.9450   38.0920   26.0350 H   0  0  0  0  0  0  0  0  0  0  0  0
   35.4040   38.0810   26.4140 H   0  0  0  0  0  0  0  0  0  0  0  0
   35.3530   39.7370   27.1440 H   0  0  0  0  0  0  0  0  0  0  0  0
   34.0490   37.1410   28.2670 H   0  0  0  0  0  0  0  0  0  0  0  0
   35.4160   38.1300   29.0150 H   0  0  0  0  0  0  0  0  0  0  0  0
   34.2020   33.2480   25.4950 C   0  0  0  0  0  0  0  0  0  0  0  0
   34.7000   33.9130   24.1910 C   0  0  0  0  0  0  0  0  0  0  0  0
   33.7140   35.0130   23.7600 C   0  0  0  0  0  0  0  0  0  0  0  0
   32.3120   34.4410   23.4600 C   0  0  0  0  0  0  0  0  0  0  0  0
   32.0580   33.1070   24.1980 C   0  0  0  0  0  0  0  0  0  0  0  0
   34.4860   33.9020   26.3660 H   0  0  0  0  0  0  0  0  0  0  0  0
   34.7120   32.2540   25.5860 H   0  0  0  0  0  0  0  0  0  0  0  0
   34.7960   33.1420   23.3900 H   0  0  0  0  0  0  0  0  0  0  0  0
   35.7070   34.3490   24.3880 H   0  0  0  0  0  0  0  0  0  0  0  0
   33.6230   35.7410   24.6210 H   0  0  0  0  0  0  0  0  0  0  0  0
   31.5480   35.1920   23.7820 H   0  0  0  0  0  0  0  0  0  0  0  0
   32.1680   34.2530   22.3700 H   0  0  0  0  0  0  0  0  0  0  0  0
   30.9490   32.9920   24.3260 H   0  0  0  0  0  0  0  0  0  0  0  0
   32.4400   32.2570   23.5680 H   0  0  0  0  0  0  0  0  0  0  0  0
   32.7140   33.0940   25.5370 N   0  0  0  0  0  0  0  0  0  0  0  0
   32.0080   32.1230   26.7660 S   0  0  0  0  0  0  0  0  0  0  0  0
   30.8000   32.8100   27.2590 O   0  0  0  0  0  0  0  0  0  0  0  0
   33.0050   31.9280   27.8380 O   0  0  0  0  0  0  0  0  0  0  0  0
   31.5680   30.6070   26.0470 C   0  0  0  0  0  0  0  0  0  0  0  0
   31.2120   29.8660   26.8110 H   0  0  0  0  0  0  0  0  0  0  0  0
   30.7400   30.6960   25.2950 H   0  0  0  0  0  0  0  0  0  0  0  0
   32.4230   30.1180   25.5110 H   0  0  0  0  0  0  0  0  0  0  0  0
  1  3  2  0  0  0  0
  1  7  1  0  0  0  0
  1 21  1  0  0  0  0
  2 12  1  0  0  0  0
  2 17  2  0  0  0  0
  2 18  1  0  0  0  0
  3 13  1  0  0  0  0
  3 14  1  0  0  0  0
  4 16  2  0  0  0  0
  4 19  1  0  0  0  0
  4 20  1  0  0  0  0
  5  6  1  0  0  0  0
  5 10  1  0  0  0  0
  5 11  2  0  0  0  0
  6 12  2  0  0  0  0
  6 22  1  0  0  0  0
  7  8  2  0  0  0  0
  7 27  1  0  0  0  0
  8  9  1  0  0  0  0
  8 23  1  0  0  0  0
  9 13  2  0  0  0  0
  9 24  1  0  0  0  0
 10 18  1  0  0  0  0
 10 19  2  0  0  0  0
 11 16  1  0  0  0  0
 11 25  1  0  0  0  0
 12 15  1  0  0  0  0
 13 15  1  0  0  0  0
 18 45  1  0  0  0  0
 20 26  1  0  0  0  0
 20 30  1  0  0  0  0
 28 29  1  0  0  0  0
 28 33  1  0  0  0  0
 28 34  1  0  0  0  0
 28 35  1  0  0  0  0
 29 30  1  0  0  0  0
 29 36  1  0  0  0  0
 29 37  1  0  0  0  0
 30 31  1  0  0  0  0
 30 38  1  0  0  0  0
 31 32  1  0  0  0  0
 31 39  1  0  0  0  0
 31 40  1  0  0  0  0
 32 33  1  0  0  0  0
 32 41  1  0  0  0  0
 32 42  1  0  0  0  0
 43 44  1  0  0  0  0
 43 48  1  0  0  0  0
 43 49  1  0  0  0  0
 43 57  1  0  0  0  0
 44 45  1  0  0  0  0
 44 50  1  0  0  0  0
 44 51  1  0  0  0  0
 45 46  1  0  0  0  0
 45 52  1  0  0  0  0
 46 47  1  0  0  0  0
 46 53  1  0  0  0  0
 46 54  1  0  0  0  0
 47 55  1  0  0  0  0
 47 56  1  0  0  0  0
 47 57  1  0  0  0  0
 57 58  1  0  0  0  0
 58 59  2  0  0  0  0
 58 60  2  0  0  0  0
 58 61  1  0  0  0  0
 61 62  1  0  0  0  0
 61 63  1  0  0  0  0
 61 64  1  0  0  0  0
M  END
$$$$
