p38a_2s
 OpenBabel02232411163D
Structure written by MMmdl.
 54 57  0  0  1  0  0  0  0  0999 V2000
   38.2710   36.5040   17.2140 C   0  0  0  0  0  0  0  0  0  0  0  0
   34.3800   35.0850   21.2280 C   0  0  0  0  0  0  0  0  0  0  0  0
   37.4890   36.0560   18.2740 C   0  0  0  0  0  0  0  0  0  0  0  0
   33.9230   39.1760   23.7820 C   0  0  0  0  0  0  0  0  0  0  0  0
   34.5980   37.9620   21.4000 C   0  0  0  0  0  0  0  0  0  0  0  0
   35.0400   37.2910   20.2070 C   0  0  0  0  0  0  0  0  0  0  0  0
   37.6230   36.6510   15.9790 C   0  0  0  0  0  0  0  0  0  0  0  0
   36.2760   36.3470   15.7760 C   0  0  0  0  0  0  0  0  0  0  0  0
   35.5140   35.8850   16.8550 C   0  0  0  0  0  0  0  0  0  0  0  0
   34.1330   37.2020   22.5140 C   0  0  0  0  0  0  0  0  0  0  0  0
   34.6250   39.3730   21.5540 C   0  0  0  0  0  0  0  0  0  0  0  0
   34.9770   35.9420   20.1610 C   0  0  0  0  0  0  0  0  0  0  0  0
   36.1270   35.7290   18.1010 C   0  0  0  0  0  0  0  0  0  0  0  0
   38.0210   35.9300   19.4820 F   0  0  0  0  0  0  0  0  0  0  0  0
   35.4120   35.1070   19.1350 O   0  0  0  0  0  0  0  0  0  0  0  0
   34.3040   39.9930   22.7020 N   0  0  0  0  0  0  0  0  0  0  0  0
   34.1970   33.8940   21.1380 O   0  0  0  0  0  0  0  0  0  0  0  0
   33.9660   35.8090   22.4060 N   0  0  0  0  0  0  0  0  0  0  0  0
   33.8290   37.8000   23.7100 N   0  0  0  0  0  0  0  0  0  0  0  0
   33.5630   39.7980   24.9590 N   0  0  0  0  0  0  0  0  0  0  0  0
   39.3250   36.7680   17.3440 H   0  0  0  0  0  0  0  0  0  0  0  0
   35.4240   37.9020   19.3870 H   0  0  0  0  0  0  0  0  0  0  0  0
   35.8060   36.4800   14.7980 H   0  0  0  0  0  0  0  0  0  0  0  0
   34.4500   35.6680   16.7150 H   0  0  0  0  0  0  0  0  0  0  0  0
   34.9170   40.0110   20.7050 H   0  0  0  0  0  0  0  0  0  0  0  0
   33.7220   40.8180   25.0670 H   0  0  0  0  0  0  0  0  0  0  0  0
   38.3210   37.1450   14.9590 F   0  0  0  0  0  0  0  0  0  0  0  0
   32.2160   39.0860   28.4600 C   0  0  0  0  0  0  0  0  0  0  0  0
   32.3210   39.7570   27.0850 C   0  0  0  0  0  0  0  0  0  0  0  0
   33.3920   39.0410   26.2360 C   0  0  0  0  0  0  0  0  0  0  0  0
   34.7330   38.9750   27.0030 C   0  0  0  0  0  0  0  0  0  0  0  0
   34.5130   38.3550   28.3890 C   0  0  0  0  0  0  0  0  0  0  0  0
   33.4950   39.0610   29.1360 O   0  0  0  0  0  0  0  0  0  0  0  0
   31.8330   38.0430   28.3660 H   0  0  0  0  0  0  0  0  0  0  0  0
   31.5920   39.6880   29.1590 H   0  0  0  0  0  0  0  0  0  0  0  0
   32.5930   40.8310   27.2140 H   0  0  0  0  0  0  0  0  0  0  0  0
   31.3360   39.7010   26.5630 H   0  0  0  0  0  0  0  0  0  0  0  0
   33.0380   37.9970   26.0020 H   0  0  0  0  0  0  0  0  0  0  0  0
   35.4630   38.3520   26.4340 H   0  0  0  0  0  0  0  0  0  0  0  0
   35.1540   40.0030   27.1110 H   0  0  0  0  0  0  0  0  0  0  0  0
   34.2170   37.2840   28.3030 H   0  0  0  0  0  0  0  0  0  0  0  0
   35.4110   38.4820   29.0350 H   0  0  0  0  0  0  0  0  0  0  0  0
   33.3820   35.0620   23.5600 C   0  0  0  0  0  0  0  0  0  0  0  0
   32.5600   35.6860   24.0230 H   0  0  0  0  0  0  0  0  0  0  0  0
   32.9270   34.1070   23.1800 H   0  0  0  0  0  0  0  0  0  0  0  0
   34.4340   34.7460   24.6510 C   0  0  2  0  0  0  0  0  0  0  0  0
   35.3090   33.7230   24.1750 O   0  0  0  0  0  0  0  0  0  0  0  0
   35.1980   32.9050   24.7460 H   0  0  0  0  0  0  0  0  0  0  0  0
   33.7350   34.2960   25.9660 C   0  0  0  0  0  0  0  0  0  0  0  0
   32.7250   33.8550   25.7990 H   0  0  0  0  0  0  0  0  0  0  0  0
   33.6790   35.1300   26.7010 H   0  0  0  0  0  0  0  0  0  0  0  0
   35.0980   35.6210   24.8490 H   0  0  0  0  0  0  0  0  0  0  0  0
   34.4910   33.2030   26.5170 O   0  0  0  0  0  0  0  0  0  0  0  0
   35.3500   33.5860   26.8990 H   0  0  0  0  0  0  0  0  0  0  0  0
  1  3  2  0  0  0  0
  1  7  1  0  0  0  0
  1 21  1  0  0  0  0
  2 12  1  0  0  0  0
  2 17  2  0  0  0  0
  2 18  1  0  0  0  0
  3 13  1  0  0  0  0
  3 14  1  0  0  0  0
  4 16  2  0  0  0  0
  4 19  1  0  0  0  0
  4 20  1  0  0  0  0
  5  6  1  0  0  0  0
  5 10  1  0  0  0  0
  5 11  2  0  0  0  0
  6 12  2  0  0  0  0
  6 22  1  0  0  0  0
  7  8  2  0  0  0  0
  7 27  1  0  0  0  0
  8  9  1  0  0  0  0
  8 23  1  0  0  0  0
  9 13  2  0  0  0  0
  9 24  1  0  0  0  0
 10 18  1  0  0  0  0
 10 19  2  0  0  0  0
 11 16  1  0  0  0  0
 11 25  1  0  0  0  0
 12 15  1  0  0  0  0
 13 15  1  0  0  0  0
 18 43  1  0  0  0  0
 20 26  1  0  0  0  0
 20 30  1  0  0  0  0
 28 29  1  0  0  0  0
 28 33  1  0  0  0  0
 28 34  1  0  0  0  0
 28 35  1  0  0  0  0
 29 30  1  0  0  0  0
 29 36  1  0  0  0  0
 29 37  1  0  0  0  0
 30 31  1  0  0  0  0
 30 38  1  0  0  0  0
 31 32  1  0  0  0  0
 31 39  1  0  0  0  0
 31 40  1  0  0  0  0
 32 33  1  0  0  0  0
 32 41  1  0  0  0  0
 32 42  1  0  0  0  0
 43 44  1  0  0  0  0
 43 45  1  0  0  0  0
 43 46  1  0  0  0  0
 46 47  1  0  0  0  0
 46 49  1  0  0  0  0
 46 52  1  1  0  0  0
 47 48  1  0  0  0  0
 49 50  1  0  0  0  0
 49 51  1  0  0  0  0
 49 53  1  0  0  0  0
 53 54  1  0  0  0  0
M  END
$$$$
