p38a_2u
 OpenBabel02232411163D
Structure written by MMmdl.
 64 68  0  0  0  0  0  0  0  0999 V2000
   38.3170   36.5700   17.1260 C   0  0  0  0  0  0  0  0  0  0  0  0
   34.5860   35.0470   21.1850 C   0  0  0  0  0  0  0  0  0  0  0  0
   37.5390   36.1050   18.1830 C   0  0  0  0  0  0  0  0  0  0  0  0
   34.0440   39.0790   23.8070 C   0  0  0  0  0  0  0  0  0  0  0  0
   34.7000   37.9040   21.4060 C   0  0  0  0  0  0  0  0  0  0  0  0
   35.1010   37.2810   20.1750 C   0  0  0  0  0  0  0  0  0  0  0  0
   37.6670   36.7210   15.8940 C   0  0  0  0  0  0  0  0  0  0  0  0
   36.3220   36.4070   15.6880 C   0  0  0  0  0  0  0  0  0  0  0  0
   35.5650   35.9280   16.7620 C   0  0  0  0  0  0  0  0  0  0  0  0
   34.3350   37.1110   22.5390 C   0  0  0  0  0  0  0  0  0  0  0  0
   34.6640   39.3160   21.5620 C   0  0  0  0  0  0  0  0  0  0  0  0
   35.0830   35.9320   20.1000 C   0  0  0  0  0  0  0  0  0  0  0  0
   36.1800   35.7700   18.0070 C   0  0  0  0  0  0  0  0  0  0  0  0
   38.0730   35.9780   19.3910 F   0  0  0  0  0  0  0  0  0  0  0  0
   35.4660   35.1290   19.0280 O   0  0  0  0  0  0  0  0  0  0  0  0
   34.3480   39.9190   22.7170 N   0  0  0  0  0  0  0  0  0  0  0  0
   34.4400   33.8480   21.0830 O   0  0  0  0  0  0  0  0  0  0  0  0
   34.2640   35.7080   22.4280 N   0  0  0  0  0  0  0  0  0  0  0  0
   34.0470   37.7010   23.7430 N   0  0  0  0  0  0  0  0  0  0  0  0
   33.6490   39.6930   24.9780 N   0  0  0  0  0  0  0  0  0  0  0  0
   39.3680   36.8410   17.2620 H   0  0  0  0  0  0  0  0  0  0  0  0
   35.4160   37.9220   19.3490 H   0  0  0  0  0  0  0  0  0  0  0  0
   35.8490   36.5450   14.7130 H   0  0  0  0  0  0  0  0  0  0  0  0
   34.5030   35.6990   16.6240 H   0  0  0  0  0  0  0  0  0  0  0  0
   34.9010   39.9690   20.7040 H   0  0  0  0  0  0  0  0  0  0  0  0
   33.7510   40.7250   25.0630 H   0  0  0  0  0  0  0  0  0  0  0  0
   38.3580   37.2300   14.8770 F   0  0  0  0  0  0  0  0  0  0  0  0
   32.4910   39.0730   28.5600 C   0  0  0  0  0  0  0  0  0  0  0  0
   32.4900   39.6570   27.1430 C   0  0  0  0  0  0  0  0  0  0  0  0
   33.5670   38.9640   26.2790 C   0  0  0  0  0  0  0  0  0  0  0  0
   34.9410   38.9910   26.9890 C   0  0  0  0  0  0  0  0  0  0  0  0
   34.8080   38.4400   28.4130 C   0  0  0  0  0  0  0  0  0  0  0  0
   33.8010   39.1560   29.1670 O   0  0  0  0  0  0  0  0  0  0  0  0
   32.1600   38.0090   28.5530 H   0  0  0  0  0  0  0  0  0  0  0  0
   31.8680   39.6870   29.2500 H   0  0  0  0  0  0  0  0  0  0  0  0
   32.6930   40.7530   27.1940 H   0  0  0  0  0  0  0  0  0  0  0  0
   31.4870   39.5040   26.6770 H   0  0  0  0  0  0  0  0  0  0  0  0
   33.2590   37.8980   26.0910 H   0  0  0  0  0  0  0  0  0  0  0  0
   35.6670   38.3650   26.4200 H   0  0  0  0  0  0  0  0  0  0  0  0
   35.3230   40.0400   27.0260 H   0  0  0  0  0  0  0  0  0  0  0  0
   34.5430   37.3570   28.3970 H   0  0  0  0  0  0  0  0  0  0  0  0
   35.7300   38.6290   29.0100 H   0  0  0  0  0  0  0  0  0  0  0  0
   31.8280   34.1250   24.9810 C   0  0  0  0  0  0  0  0  0  0  0  0
   32.3320   35.1790   23.9730 C   0  0  0  0  0  0  0  0  0  0  0  0
   33.7680   34.8260   23.5520 C   0  0  0  0  0  0  0  0  0  0  0  0
   34.6900   34.8430   24.7830 C   0  0  0  0  0  0  0  0  0  0  0  0
   34.1920   33.7880   25.7990 C   0  0  0  0  0  0  0  0  0  0  0  0
   31.7090   33.1380   24.4620 H   0  0  0  0  0  0  0  0  0  0  0  0
   30.8280   34.4730   25.3590 H   0  0  0  0  0  0  0  0  0  0  0  0
   32.3020   36.1810   24.4720 H   0  0  0  0  0  0  0  0  0  0  0  0
   31.6440   35.2000   23.0990 H   0  0  0  0  0  0  0  0  0  0  0  0
   33.7630   33.7730   23.1350 H   0  0  0  0  0  0  0  0  0  0  0  0
   35.7390   34.6080   24.5030 H   0  0  0  0  0  0  0  0  0  0  0  0
   34.6650   35.8480   25.2750 H   0  0  0  0  0  0  0  0  0  0  0  0
   34.3420   32.7620   25.3710 H   0  0  0  0  0  0  0  0  0  0  0  0
   34.7980   33.9040   26.7370 H   0  0  0  0  0  0  0  0  0  0  0  0
   32.7570   34.0180   26.1450 N   0  0  0  0  0  0  0  0  0  0  0  0
   32.1220   33.3690   27.6030 S   0  0  0  0  0  0  0  0  0  0  0  0
   33.1460   32.5270   28.2510 O   0  0  0  0  0  0  0  0  0  0  0  0
   30.8900   32.6080   27.3150 O   0  0  0  0  0  0  0  0  0  0  0  0
   31.7830   34.7780   28.5480 C   0  0  0  0  0  0  0  0  0  0  0  0
   30.9490   35.3910   28.1110 H   0  0  0  0  0  0  0  0  0  0  0  0
   31.4830   34.5300   29.5990 H   0  0  0  0  0  0  0  0  0  0  0  0
   32.6700   35.4590   28.6150 H   0  0  0  0  0  0  0  0  0  0  0  0
  1  3  2  0  0  0  0
  1  7  1  0  0  0  0
  1 21  1  0  0  0  0
  2 12  1  0  0  0  0
  2 17  2  0  0  0  0
  2 18  1  0  0  0  0
  3 13  1  0  0  0  0
  3 14  1  0  0  0  0
  4 16  2  0  0  0  0
  4 19  1  0  0  0  0
  4 20  1  0  0  0  0
  5  6  1  0  0  0  0
  5 10  1  0  0  0  0
  5 11  2  0  0  0  0
  6 12  2  0  0  0  0
  6 22  1  0  0  0  0
  7  8  2  0  0  0  0
  7 27  1  0  0  0  0
  8  9  1  0  0  0  0
  8 23  1  0  0  0  0
  9 13  2  0  0  0  0
  9 24  1  0  0  0  0
 10 18  1  0  0  0  0
 10 19  2  0  0  0  0
 11 16  1  0  0  0  0
 11 25  1  0  0  0  0
 12 15  1  0  0  0  0
 13 15  1  0  0  0  0
 18 45  1  0  0  0  0
 20 26  1  0  0  0  0
 20 30  1  0  0  0  0
 28 29  1  0  0  0  0
 28 33  1  0  0  0  0
 28 34  1  0  0  0  0
 28 35  1  0  0  0  0
 29 30  1  0  0  0  0
 29 36  1  0  0  0  0
 29 37  1  0  0  0  0
 30 31  1  0  0  0  0
 30 38  1  0  0  0  0
 31 32  1  0  0  0  0
 31 39  1  0  0  0  0
 31 40  1  0  0  0  0
 32 33  1  0  0  0  0
 32 41  1  0  0  0  0
 32 42  1  0  0  0  0
 43 44  1  0  0  0  0
 43 48  1  0  0  0  0
 43 49  1  0  0  0  0
 43 57  1  0  0  0  0
 44 45  1  0  0  0  0
 44 50  1  0  0  0  0
 44 51  1  0  0  0  0
 45 46  1  0  0  0  0
 45 52  1  0  0  0  0
 46 47  1  0  0  0  0
 46 53  1  0  0  0  0
 46 54  1  0  0  0  0
 47 55  1  0  0  0  0
 47 56  1  0  0  0  0
 47 57  1  0  0  0  0
 57 58  1  0  0  0  0
 58 59  2  0  0  0  0
 58 60  2  0  0  0  0
 58 61  1  0  0  0  0
 61 62  1  0  0  0  0
 61 63  1  0  0  0  0
 61 64  1  0  0  0  0
M  END
$$$$
