p38a_2ff
 OpenBabel02232411163D
Structure written by MMmdl.
 49 52  0  0  1  0  0  0  0  0999 V2000
   36.3640   36.0410   15.7890 C   0  0  0  0  0  0  0  0  0  0  0  0
   34.5960   35.0380   21.3690 C   0  0  0  0  0  0  0  0  0  0  0  0
   35.6760   35.5730   16.9040 C   0  0  0  0  0  0  0  0  0  0  0  0
   34.1550   39.1520   23.8710 C   0  0  0  0  0  0  0  0  0  0  0  0
   34.7680   37.9080   21.4860 C   0  0  0  0  0  0  0  0  0  0  0  0
   35.1640   37.2280   20.2830 C   0  0  0  0  0  0  0  0  0  0  0  0
   37.6570   36.5320   16.0130 C   0  0  0  0  0  0  0  0  0  0  0  0
   38.2740   36.5340   17.2670 C   0  0  0  0  0  0  0  0  0  0  0  0
   37.5480   36.0930   18.3790 C   0  0  0  0  0  0  0  0  0  0  0  0
   34.4270   37.1580   22.6520 C   0  0  0  0  0  0  0  0  0  0  0  0
   34.7190   39.3240   21.5980 C   0  0  0  0  0  0  0  0  0  0  0  0
   35.1160   35.8760   20.2550 C   0  0  0  0  0  0  0  0  0  0  0  0
   36.2470   35.6150   18.1930 C   0  0  0  0  0  0  0  0  0  0  0  0
   34.0290   34.9970   23.8310 C   0  0  0  0  0  0  0  0  0  0  0  0
   34.4590   35.0610   16.7790 F   0  0  0  0  0  0  0  0  0  0  0  0
   35.4780   35.0310   19.2070 O   0  0  0  0  0  0  0  0  0  0  0  0
   34.4200   39.9560   22.7420 N   0  0  0  0  0  0  0  0  0  0  0  0
   34.3650   33.8500   21.3060 O   0  0  0  0  0  0  0  0  0  0  0  0
   34.3610   35.7560   22.5930 N   0  0  0  0  0  0  0  0  0  0  0  0
   34.1440   37.7700   23.8460 N   0  0  0  0  0  0  0  0  0  0  0  0
   33.8270   39.8030   25.0350 N   0  0  0  0  0  0  0  0  0  0  0  0
   35.9120   36.0500   14.7950 H   0  0  0  0  0  0  0  0  0  0  0  0
   35.5070   37.8320   19.4390 H   0  0  0  0  0  0  0  0  0  0  0  0
   39.2960   36.9030   17.3880 H   0  0  0  0  0  0  0  0  0  0  0  0
   37.9930   36.1490   19.3750 H   0  0  0  0  0  0  0  0  0  0  0  0
   34.9290   39.9520   20.7160 H   0  0  0  0  0  0  0  0  0  0  0  0
   34.7660   35.2490   24.6410 H   0  0  0  0  0  0  0  0  0  0  0  0
   33.0010   35.2720   24.1920 H   0  0  0  0  0  0  0  0  0  0  0  0
   34.0660   33.8940   23.6330 H   0  0  0  0  0  0  0  0  0  0  0  0
   33.8920   40.8390   25.0790 H   0  0  0  0  0  0  0  0  0  0  0  0
   38.3120   37.0580   14.9800 F   0  0  0  0  0  0  0  0  0  0  0  0
   32.4510   39.0970   28.5300 C   0  0  0  0  0  0  0  0  0  0  0  0
   32.5130   39.6630   27.1060 C   0  0  0  0  0  0  0  0  0  0  0  0
   33.7660   39.1320   26.3700 C   0  0  2  0  0  0  0  0  0  0  0  0
   35.0640   39.4520   27.1510 C   0  0  0  0  0  0  0  0  0  0  0  0
   34.9870   38.9130   28.5850 C   0  0  0  0  0  0  0  0  0  0  0  0
   33.7360   39.4600   29.2980 C   0  0  2  0  0  0  0  0  0  0  0  0
   32.3280   37.9880   28.4840 H   0  0  0  0  0  0  0  0  0  0  0  0
   31.5660   39.5210   29.0600 H   0  0  0  0  0  0  0  0  0  0  0  0
   32.5500   40.7770   27.1520 H   0  0  0  0  0  0  0  0  0  0  0  0
   31.5980   39.3620   26.5450 H   0  0  0  0  0  0  0  0  0  0  0  0
   33.6730   38.0200   26.2390 H   0  0  0  0  0  0  0  0  0  0  0  0
   35.9310   38.9810   26.6320 H   0  0  0  0  0  0  0  0  0  0  0  0
   35.2230   40.5580   27.1760 H   0  0  0  0  0  0  0  0  0  0  0  0
   34.9550   37.7980   28.5580 H   0  0  0  0  0  0  0  0  0  0  0  0
   35.9030   39.2210   29.1420 H   0  0  0  0  0  0  0  0  0  0  0  0
   33.8100   40.5630   29.4560 H   0  0  0  0  0  0  0  0  0  0  0  0
   33.6760   38.9620   30.6470 O   0  0  0  0  0  0  0  0  0  0  0  0
   33.5810   37.9750   30.6380 H   0  0  0  0  0  0  0  0  0  0  0  0
  1  3  2  0  0  0  0
  1  7  1  0  0  0  0
  1 22  1  0  0  0  0
  2 12  1  0  0  0  0
  2 18  2  0  0  0  0
  2 19  1  0  0  0  0
  3 13  1  0  0  0  0
  3 15  1  0  0  0  0
  4 17  2  0  0  0  0
  4 20  1  0  0  0  0
  4 21  1  0  0  0  0
  5  6  1  0  0  0  0
  5 10  1  0  0  0  0
  5 11  2  0  0  0  0
  6 12  2  0  0  0  0
  6 23  1  0  0  0  0
  7  8  2  0  0  0  0
  7 31  1  0  0  0  0
  8  9  1  0  0  0  0
  8 24  1  0  0  0  0
  9 13  2  0  0  0  0
  9 25  1  0  0  0  0
 10 19  1  0  0  0  0
 10 20  2  0  0  0  0
 11 17  1  0  0  0  0
 11 26  1  0  0  0  0
 12 16  1  0  0  0  0
 13 16  1  0  0  0  0
 14 19  1  0  0  0  0
 14 27  1  0  0  0  0
 14 28  1  0  0  0  0
 14 29  1  0  0  0  0
 21 30  1  0  0  0  0
 21 34  1  0  0  0  0
 32 33  1  0  0  0  0
 32 37  1  0  0  0  0
 32 38  1  0  0  0  0
 32 39  1  0  0  0  0
 33 34  1  0  0  0  0
 33 40  1  0  0  0  0
 33 41  1  0  0  0  0
 34 35  1  0  0  0  0
 34 42  1  6  0  0  0
 35 36  1  0  0  0  0
 35 43  1  0  0  0  0
 35 44  1  0  0  0  0
 36 37  1  0  0  0  0
 36 45  1  0  0  0  0
 36 46  1  0  0  0  0
 37 47  1  1  0  0  0
 37 48  1  0  0  0  0
 48 49  1  0  0  0  0
M  END
$$$$
