p38a_2n
 OpenBabel02232411163D
Structure written by MMmdl.
 53 56  0  0  0  0  0  0  0  0999 V2000
   38.2790   36.5210   17.2440 C   0  0  0  0  0  0  0  0  0  0  0  0
   34.3820   35.0840   21.2950 C   0  0  0  0  0  0  0  0  0  0  0  0
   37.5170   36.0920   18.3280 C   0  0  0  0  0  0  0  0  0  0  0  0
   33.6870   39.1060   23.9000 C   0  0  0  0  0  0  0  0  0  0  0  0
   34.5750   37.9430   21.5510 C   0  0  0  0  0  0  0  0  0  0  0  0
   35.0860   37.3070   20.3660 C   0  0  0  0  0  0  0  0  0  0  0  0
   37.6070   36.6500   16.0210 C   0  0  0  0  0  0  0  0  0  0  0  0
   36.2540   36.3470   15.8500 C   0  0  0  0  0  0  0  0  0  0  0  0
   35.5130   35.9090   16.9530 C   0  0  0  0  0  0  0  0  0  0  0  0
   33.9640   37.1700   22.5810 C   0  0  0  0  0  0  0  0  0  0  0  0
   34.6500   39.3470   21.7670 C   0  0  0  0  0  0  0  0  0  0  0  0
   35.0100   35.9600   20.2700 C   0  0  0  0  0  0  0  0  0  0  0  0
   36.1500   35.7690   18.1890 C   0  0  0  0  0  0  0  0  0  0  0  0
   38.0770   35.9760   19.5240 F   0  0  0  0  0  0  0  0  0  0  0  0
   35.4650   35.1430   19.2370 O   0  0  0  0  0  0  0  0  0  0  0  0
   34.2400   39.9370   22.8970 N   0  0  0  0  0  0  0  0  0  0  0  0
   34.3060   33.8760   21.2320 O   0  0  0  0  0  0  0  0  0  0  0  0
   33.8300   35.7760   22.4300 N   0  0  0  0  0  0  0  0  0  0  0  0
   33.5020   37.7480   23.7370 N   0  0  0  0  0  0  0  0  0  0  0  0
   33.3660   39.7220   25.0850 N   0  0  0  0  0  0  0  0  0  0  0  0
   39.3360   36.7810   17.3500 H   0  0  0  0  0  0  0  0  0  0  0  0
   35.5230   37.9380   19.5880 H   0  0  0  0  0  0  0  0  0  0  0  0
   35.7650   36.4620   14.8790 H   0  0  0  0  0  0  0  0  0  0  0  0
   34.4450   35.6910   16.8410 H   0  0  0  0  0  0  0  0  0  0  0  0
   35.0600   39.9990   20.9770 H   0  0  0  0  0  0  0  0  0  0  0  0
   33.5140   40.7530   25.1530 H   0  0  0  0  0  0  0  0  0  0  0  0
   38.2870   37.1200   14.9780 F   0  0  0  0  0  0  0  0  0  0  0  0
   32.1450   39.4930   28.7070 C   0  0  0  0  0  0  0  0  0  0  0  0
   32.7940   40.0730   27.4440 C   0  0  0  0  0  0  0  0  0  0  0  0
   32.5960   39.1300   26.2330 C   0  0  0  0  0  0  0  0  0  0  0  0
   33.0410   37.7050   26.6050 C   0  0  0  0  0  0  0  0  0  0  0  0
   32.3940   37.2450   27.9180 C   0  0  0  0  0  0  0  0  0  0  0  0
   32.6500   38.1730   28.9980 O   0  0  0  0  0  0  0  0  0  0  0  0
   31.0370   39.4370   28.5990 H   0  0  0  0  0  0  0  0  0  0  0  0
   32.4400   40.0770   29.6100 H   0  0  0  0  0  0  0  0  0  0  0  0
   33.8860   40.2320   27.6230 H   0  0  0  0  0  0  0  0  0  0  0  0
   32.3380   41.0660   27.2300 H   0  0  0  0  0  0  0  0  0  0  0  0
   31.5090   39.1190   25.9360 H   0  0  0  0  0  0  0  0  0  0  0  0
   32.7190   36.9920   25.8030 H   0  0  0  0  0  0  0  0  0  0  0  0
   34.1520   37.6670   26.6940 H   0  0  0  0  0  0  0  0  0  0  0  0
   31.2910   37.1250   27.7990 H   0  0  0  0  0  0  0  0  0  0  0  0
   32.8680   36.3060   28.2880 H   0  0  0  0  0  0  0  0  0  0  0  0
   33.0990   34.9750   23.4680 C   0  0  0  0  0  0  0  0  0  0  0  0
   32.1960   35.5660   23.7980 H   0  0  0  0  0  0  0  0  0  0  0  0
   32.7390   34.0260   22.9840 H   0  0  0  0  0  0  0  0  0  0  0  0
   33.9520   34.6490   24.7000 C   0  0  0  0  0  0  0  0  0  0  0  0
   34.3040   35.5930   25.1840 H   0  0  0  0  0  0  0  0  0  0  0  0
   33.2800   34.1300   25.4370 H   0  0  0  0  0  0  0  0  0  0  0  0
   35.1590   33.7520   24.4100 C   0  0  0  0  0  0  0  0  0  0  0  0
   34.9270   32.9670   23.6560 H   0  0  0  0  0  0  0  0  0  0  0  0
   36.0430   34.3620   24.1310 H   0  0  0  0  0  0  0  0  0  0  0  0
   35.4910   32.9710   25.5680 O   0  0  0  0  0  0  0  0  0  0  0  0
   35.7920   33.5720   26.3090 H   0  0  0  0  0  0  0  0  0  0  0  0
  1  3  2  0  0  0  0
  1  7  1  0  0  0  0
  1 21  1  0  0  0  0
  2 12  1  0  0  0  0
  2 17  2  0  0  0  0
  2 18  1  0  0  0  0
  3 13  1  0  0  0  0
  3 14  1  0  0  0  0
  4 16  2  0  0  0  0
  4 19  1  0  0  0  0
  4 20  1  0  0  0  0
  5  6  1  0  0  0  0
  5 10  1  0  0  0  0
  5 11  2  0  0  0  0
  6 12  2  0  0  0  0
  6 22  1  0  0  0  0
  7  8  2  0  0  0  0
  7 27  1  0  0  0  0
  8  9  1  0  0  0  0
  8 23  1  0  0  0  0
  9 13  2  0  0  0  0
  9 24  1  0  0  0  0
 10 18  1  0  0  0  0
 10 19  2  0  0  0  0
 11 16  1  0  0  0  0
 11 25  1  0  0  0  0
 12 15  1  0  0  0  0
 13 15  1  0  0  0  0
 18 43  1  0  0  0  0
 20 26  1  0  0  0  0
 20 30  1  0  0  0  0
 28 29  1  0  0  0  0
 28 33  1  0  0  0  0
 28 34  1  0  0  0  0
 28 35  1  0  0  0  0
 29 30  1  0  0  0  0
 29 36  1  0  0  0  0
 29 37  1  0  0  0  0
 30 31  1  0  0  0  0
 30 38  1  0  0  0  0
 31 32  1  0  0  0  0
 31 39  1  0  0  0  0
 31 40  1  0  0  0  0
 32 33  1  0  0  0  0
 32 41  1  0  0  0  0
 32 42  1  0  0  0  0
 43 44  1  0  0  0  0
 43 45  1  0  0  0  0
 43 46  1  0  0  0  0
 46 47  1  0  0  0  0
 46 48  1  0  0  0  0
 46 49  1  0  0  0  0
 49 50  1  0  0  0  0
 49 51  1  0  0  0  0
 49 52  1  0  0  0  0
 52 53  1  0  0  0  0
M  END
$$$$
