p38a_2z
 OpenBabel02232411163D
Structure written by MMmdl.
 45 47  0  0  0  0  0  0  0  0999 V2000
   36.3890   35.8790   16.0150 C   0  0  0  0  0  0  0  0  0  0  0  0
   34.3320   35.0750   21.5580 C   0  0  0  0  0  0  0  0  0  0  0  0
   35.5790   35.4850   17.0760 C   0  0  0  0  0  0  0  0  0  0  0  0
   34.0570   39.1900   24.0950 C   0  0  0  0  0  0  0  0  0  0  0  0
   33.7710   39.2260   26.6390 C   0  0  0  0  0  0  0  0  0  0  0  0
   34.5870   37.9420   21.6880 C   0  0  0  0  0  0  0  0  0  0  0  0
   34.9390   37.2570   20.4750 C   0  0  0  0  0  0  0  0  0  0  0  0
   37.6670   36.3480   16.3460 C   0  0  0  0  0  0  0  0  0  0  0  0
   38.1610   36.3820   17.6530 C   0  0  0  0  0  0  0  0  0  0  0  0
   37.3180   36.0060   18.7050 C   0  0  0  0  0  0  0  0  0  0  0  0
   34.1970   37.2000   22.8430 C   0  0  0  0  0  0  0  0  0  0  0  0
   34.6200   39.3580   21.8180 C   0  0  0  0  0  0  0  0  0  0  0  0
   34.8460   35.9070   20.4400 C   0  0  0  0  0  0  0  0  0  0  0  0
   36.0240   35.5670   18.4130 C   0  0  0  0  0  0  0  0  0  0  0  0
   33.6340   35.0560   23.9860 C   0  0  0  0  0  0  0  0  0  0  0  0
   34.3640   35.0040   16.8510 F   0  0  0  0  0  0  0  0  0  0  0  0
   35.1240   35.0680   19.3600 O   0  0  0  0  0  0  0  0  0  0  0  0
   34.3660   39.9910   22.9710 N   0  0  0  0  0  0  0  0  0  0  0  0
   34.1260   33.8830   21.5100 O   0  0  0  0  0  0  0  0  0  0  0  0
   34.0620   35.8040   22.7710 N   0  0  0  0  0  0  0  0  0  0  0  0
   33.9420   37.8160   24.0430 N   0  0  0  0  0  0  0  0  0  0  0  0
   33.8170   39.8610   25.2710 N   0  0  0  0  0  0  0  0  0  0  0  0
   36.0400   35.8550   14.9800 H   0  0  0  0  0  0  0  0  0  0  0  0
   35.0250   38.3810   26.8950 C   0  0  0  0  0  0  0  0  0  0  0  0
   35.2880   37.8530   19.6270 H   0  0  0  0  0  0  0  0  0  0  0  0
   39.1790   36.7280   17.8510 H   0  0  0  0  0  0  0  0  0  0  0  0
   37.6690   36.0780   19.7370 H   0  0  0  0  0  0  0  0  0  0  0  0
   34.8650   39.9790   20.9400 H   0  0  0  0  0  0  0  0  0  0  0  0
   34.3490   35.2520   24.8310 H   0  0  0  0  0  0  0  0  0  0  0  0
   32.6110   35.3930   24.3040 H   0  0  0  0  0  0  0  0  0  0  0  0
   33.6090   33.9550   23.7770 H   0  0  0  0  0  0  0  0  0  0  0  0
   33.9090   40.8950   25.2620 H   0  0  0  0  0  0  0  0  0  0  0  0
   38.4360   36.8150   15.3650 F   0  0  0  0  0  0  0  0  0  0  0  0
   33.7180   40.3890   27.6910 C   0  0  0  0  0  0  0  0  0  0  0  0
   32.4790   38.4080   26.7800 C   0  0  0  0  0  0  0  0  0  0  0  0
   34.8330   41.2850   27.5480 O   0  0  0  0  0  0  0  0  0  0  0  0
   34.5760   41.9510   26.8340 H   0  0  0  0  0  0  0  0  0  0  0  0
   32.7730   40.9670   27.6070 H   0  0  0  0  0  0  0  0  0  0  0  0
   33.8390   39.9720   28.7190 H   0  0  0  0  0  0  0  0  0  0  0  0
   32.3370   38.0950   27.8410 H   0  0  0  0  0  0  0  0  0  0  0  0
   31.5910   38.9970   26.4610 H   0  0  0  0  0  0  0  0  0  0  0  0
   32.5290   37.4800   26.1610 H   0  0  0  0  0  0  0  0  0  0  0  0
   34.9880   37.9630   27.9300 H   0  0  0  0  0  0  0  0  0  0  0  0
   35.0840   37.5160   26.1950 H   0  0  0  0  0  0  0  0  0  0  0  0
   35.9400   39.0030   26.7960 H   0  0  0  0  0  0  0  0  0  0  0  0
  1  3  2  0  0  0  0
  1  8  1  0  0  0  0
  1 23  1  0  0  0  0
  2 13  1  0  0  0  0
  2 19  2  0  0  0  0
  2 20  1  0  0  0  0
  3 14  1  0  0  0  0
  3 16  1  0  0  0  0
  4 18  2  0  0  0  0
  4 21  1  0  0  0  0
  4 22  1  0  0  0  0
  5 22  1  0  0  0  0
  5 24  1  0  0  0  0
  5 34  1  0  0  0  0
  5 35  1  0  0  0  0
  6  7  1  0  0  0  0
  6 11  1  0  0  0  0
  6 12  2  0  0  0  0
  7 13  2  0  0  0  0
  7 25  1  0  0  0  0
  8  9  2  0  0  0  0
  8 33  1  0  0  0  0
  9 10  1  0  0  0  0
  9 26  1  0  0  0  0
 10 14  2  0  0  0  0
 10 27  1  0  0  0  0
 11 20  1  0  0  0  0
 11 21  2  0  0  0  0
 12 18  1  0  0  0  0
 12 28  1  0  0  0  0
 13 17  1  0  0  0  0
 14 17  1  0  0  0  0
 15 20  1  0  0  0  0
 15 29  1  0  0  0  0
 15 30  1  0  0  0  0
 15 31  1  0  0  0  0
 22 32  1  0  0  0  0
 24 43  1  0  0  0  0
 24 44  1  0  0  0  0
 24 45  1  0  0  0  0
 34 36  1  0  0  0  0
 34 38  1  0  0  0  0
 34 39  1  0  0  0  0
 35 40  1  0  0  0  0
 35 41  1  0  0  0  0
 35 42  1  0  0  0  0
 36 37  1  0  0  0  0
M  END
$$$$
