26.pdb
 OpenBabel02232411163D

 43 46  0  0  0  0  0  0  0  0999 V2000
    3.5550  -50.2360    6.2900 O   0  5  0  0  0  0  0  0  0  0  0  0
    2.9160  -49.2280    6.6330 C   0  0  0  0  0  0  0  0  0  0  0  0
    3.3430  -48.1850    7.1380 O   0  0  0  0  0  0  0  0  0  0  0  0
    1.3870  -49.3520    6.4140 C   0  0  0  0  0  0  0  0  0  0  0  0
    0.9560  -50.6640    6.7190 O   0  0  0  0  0  0  0  0  0  0  0  0
   -0.4180  -50.6860    6.4700 C   0  0  0  0  0  0  0  0  0  0  0  0
   -1.2750  -51.7660    6.6630 C   0  0  0  0  0  0  0  0  0  0  0  0
   -0.9460  -52.7340    7.0400 H   0  0  0  0  0  0  0  0  0  0  0  0
   -2.6180  -51.5460    6.3450 C   0  0  0  0  0  0  0  0  0  0  0  0
   -3.3440  -52.3500    6.4840 H   0  0  0  0  0  0  0  0  0  0  0  0
   -3.0620  -50.3060    5.8490 C   0  0  0  0  0  0  0  0  0  0  0  0
   -4.1190  -50.1830    5.6040 H   0  0  0  0  0  0  0  0  0  0  0  0
   -2.1880  -49.2330    5.6620 C   0  0  0  0  0  0  0  0  0  0  0  0
   -2.5640  -48.2840    5.2790 H   0  0  0  0  0  0  0  0  0  0  0  0
   -0.8410  -49.4080    5.9890 C   0  0  0  0  0  0  0  0  0  0  0  0
    0.3490  -48.5670    5.9820 C   0  0  0  0  0  0  0  0  0  0  0  0
    0.3500  -47.1300    5.5990 C   0  0  0  0  0  0  0  0  0  0  0  0
    1.2490  -46.9000    4.9740 H   0  0  0  0  0  0  0  0  0  0  0  0
   -0.5640  -46.9260    4.9840 H   0  0  0  0  0  0  0  0  0  0  0  0
    0.3520  -46.1920    6.8230 C   0  0  0  0  0  0  0  0  0  0  0  0
    0.7320  -46.7450    7.7140 H   0  0  0  0  0  0  0  0  0  0  0  0
    1.0290  -45.3300    6.6140 H   0  0  0  0  0  0  0  0  0  0  0  0
   -1.0070  -45.5770    7.1740 C   0  0  0  0  0  0  0  0  0  0  0  0
   -0.9820  -45.0610    8.1610 H   0  0  0  0  0  0  0  0  0  0  0  0
   -1.3760  -44.9010    6.3790 H   0  0  0  0  0  0  0  0  0  0  0  0
   -1.9460  -46.6990    7.2890 O   0  0  0  0  0  0  0  0  0  0  0  0
   -3.1780  -46.3960    7.8350 C   0  0  0  0  0  0  0  0  0  0  0  0
   -4.1000  -45.4680    7.2310 C   0  0  0  0  0  0  0  0  0  0  0  0
   -5.3180  -45.2060    7.9190 C   0  0  0  0  0  0  0  0  0  0  0  0
   -5.6340  -45.9300    9.1100 C   0  0  0  0  0  0  0  0  0  0  0  0
   -6.5780  -45.7230    9.6140 H   0  0  0  0  0  0  0  0  0  0  0  0
   -4.7810  -46.8990    9.5800 C   0  0  0  0  0  0  0  0  0  0  0  0
   -5.0600  -47.5070   10.4420 H   0  0  0  0  0  0  0  0  0  0  0  0
   -3.5260  -47.1210    8.9590 C   0  0  0  0  0  0  0  0  0  0  0  0
   -2.8500  -47.8670    9.3670 H   0  0  0  0  0  0  0  0  0  0  0  0
   -6.2400  -44.2580    7.3690 C   0  0  0  0  0  0  0  0  0  0  0  0
   -7.1580  -44.0380    7.9160 H   0  0  0  0  0  0  0  0  0  0  0  0
   -5.9860  -43.6530    6.1650 C   0  0  0  0  0  0  0  0  0  0  0  0
   -6.6860  -42.9320    5.7430 H   0  0  0  0  0  0  0  0  0  0  0  0
   -4.8070  -43.9760    5.4360 C   0  0  0  0  0  0  0  0  0  0  0  0
   -4.6530  -43.5150    4.4610 H   0  0  0  0  0  0  0  0  0  0  0  0
   -3.8990  -44.8700    5.9500 C   0  0  0  0  0  0  0  0  0  0  0  0
   -3.0480  -45.1780    5.3420 H   0  0  0  0  0  0  0  0  0  0  0  0
  1  2  1  0  0  0  0
  2  3  2  0  0  0  0
  4  2  1  0  0  0  0
  4  5  1  0  0  0  0
  6  7  1  0  0  0  0
  6  5  1  0  0  0  0
  7  8  1  0  0  0  0
  9 10  1  0  0  0  0
  9  7  2  0  0  0  0
 11  9  1  0  0  0  0
 12 11  1  0  0  0  0
 13 11  2  0  0  0  0
 13 15  1  0  0  0  0
 14 13  1  0  0  0  0
 15  6  2  0  0  0  0
 16 15  1  0  0  0  0
 16  4  2  0  0  0  0
 17 16  1  0  0  0  0
 17 20  1  0  0  0  0
 18 17  1  0  0  0  0
 19 17  1  0  0  0  0
 20 22  1  0  0  0  0
 20 23  1  0  0  0  0
 21 20  1  0  0  0  0
 23 25  1  0  0  0  0
 23 24  1  0  0  0  0
 26 23  1  0  0  0  0
 26 27  1  0  0  0  0
 27 34  1  0  0  0  0
 28 27  2  0  0  0  0
 28 29  1  0  0  0  0
 29 30  2  0  0  0  0
 30 32  1  0  0  0  0
 30 31  1  0  0  0  0
 32 33  1  0  0  0  0
 34 35  1  0  0  0  0
 34 32  2  0  0  0  0
 36 29  1  0  0  0  0
 36 37  1  0  0  0  0
 38 36  2  0  0  0  0
 39 38  1  0  0  0  0
 40 42  2  0  0  0  0
 40 38  1  0  0  0  0
 41 40  1  0  0  0  0
 42 28  1  0  0  0  0
 43 42  1  0  0  0  0
M  CHG  1   1  -1
M  END
$$$$
