p38a_3flw
 OpenBabel02232411163D
Structure written by MMmdl.
 49 51  0  0  0  0  0  0  0  0999 V2000
   36.3380   36.0950   15.7150 C   0  0  0  0  0  0  0  0  0  0  0  0
   37.6350   36.5840   15.9120 C   0  0  0  0  0  0  0  0  0  0  0  0
   34.6270   39.5870   27.4910 C   0  0  0  0  0  0  0  0  0  0  0  0
   34.4240   38.7150   28.7370 C   0  0  0  0  0  0  0  0  0  0  0  0
   32.2590   39.4280   26.5420 C   0  0  0  0  0  0  0  0  0  0  0  0
   34.4680   34.9820   23.8520 C   0  0  0  0  0  0  0  0  0  0  0  0
   34.4590   35.1000   16.7420 F   0  0  0  0  0  0  0  0  0  0  0  0
   35.6780   35.6130   16.8410 C   0  0  0  0  0  0  0  0  0  0  0  0
   38.2650   37.1190   14.8680 F   0  0  0  0  0  0  0  0  0  0  0  0
   38.2820   36.5760   17.1510 C   0  0  0  0  0  0  0  0  0  0  0  0
   37.5830   36.1220   18.2760 C   0  0  0  0  0  0  0  0  0  0  0  0
   36.2800   35.6440   18.1160 C   0  0  0  0  0  0  0  0  0  0  0  0
   35.5350   35.0520   19.1440 O   0  0  0  0  0  0  0  0  0  0  0  0
   35.1990   35.8930   20.2040 C   0  0  0  0  0  0  0  0  0  0  0  0
   35.2240   37.2450   20.2290 C   0  0  0  0  0  0  0  0  0  0  0  0
   34.8830   37.9170   21.4540 C   0  0  0  0  0  0  0  0  0  0  0  0
   34.7690   39.3280   21.5640 C   0  0  0  0  0  0  0  0  0  0  0  0
   34.5090   39.9500   22.7250 N   0  0  0  0  0  0  0  0  0  0  0  0
   34.7400   35.0490   21.3410 C   0  0  0  0  0  0  0  0  0  0  0  0
   34.4650   33.8720   21.2790 O   0  0  0  0  0  0  0  0  0  0  0  0
   34.6340   35.7560   22.5900 N   0  0  0  0  0  0  0  0  0  0  0  0
   34.6650   37.1590   22.6450 C   0  0  0  0  0  0  0  0  0  0  0  0
   34.4620   37.7670   23.8560 N   0  0  0  0  0  0  0  0  0  0  0  0
   34.3900   39.1440   23.8720 C   0  0  0  0  0  0  0  0  0  0  0  0
   34.2750   39.7970   25.0890 N   0  0  0  0  0  0  0  0  0  0  0  0
   33.7550   39.1030   26.3060 C   0  0  0  0  0  0  0  0  0  0  0  0
   31.3370   39.2570   25.3290 C   0  0  0  0  0  0  0  0  0  0  0  0
   31.5220   38.0330   24.6040 O   0  0  0  0  0  0  0  0  0  0  0  0
   35.3270   39.1000   29.7910 O   0  0  0  0  0  0  0  0  0  0  0  0
   35.8610   36.1140   14.7340 H   0  0  0  0  0  0  0  0  0  0  0  0
   34.3830   40.6510   27.7290 H   0  0  0  0  0  0  0  0  0  0  0  0
   35.6990   39.5470   27.1770 H   0  0  0  0  0  0  0  0  0  0  0  0
   33.4210   38.8810   29.1950 H   0  0  0  0  0  0  0  0  0  0  0  0
   34.5880   37.6370   28.5010 H   0  0  0  0  0  0  0  0  0  0  0  0
   31.9030   38.7750   27.3770 H   0  0  0  0  0  0  0  0  0  0  0  0
   32.1730   40.4910   26.8840 H   0  0  0  0  0  0  0  0  0  0  0  0
   33.5020   35.2530   24.3560 H   0  0  0  0  0  0  0  0  0  0  0  0
   34.4730   33.8830   23.6370 H   0  0  0  0  0  0  0  0  0  0  0  0
   35.3100   35.2250   24.5560 H   0  0  0  0  0  0  0  0  0  0  0  0
   39.3050   36.9480   17.2540 H   0  0  0  0  0  0  0  0  0  0  0  0
   38.0540   36.1720   19.2600 H   0  0  0  0  0  0  0  0  0  0  0  0
   35.5120   37.8540   19.3690 H   0  0  0  0  0  0  0  0  0  0  0  0
   34.8800   39.9630   20.6680 H   0  0  0  0  0  0  0  0  0  0  0  0
   34.0870   40.8200   25.0930 H   0  0  0  0  0  0  0  0  0  0  0  0
   33.8780   37.9920   26.1940 H   0  0  0  0  0  0  0  0  0  0  0  0
   30.2740   39.2810   25.6640 H   0  0  0  0  0  0  0  0  0  0  0  0
   31.5330   40.0390   24.5600 H   0  0  0  0  0  0  0  0  0  0  0  0
   31.6790   37.2960   25.2400 H   0  0  0  0  0  0  0  0  0  0  0  0
   36.2570   39.0480   29.4560 H   0  0  0  0  0  0  0  0  0  0  0  0
  1  2  2  0  0  0  0
  1  8  1  0  0  0  0
  1 30  1  0  0  0  0
  2  9  1  0  0  0  0
  2 10  1  0  0  0  0
  3  4  1  0  0  0  0
  3 26  1  0  0  0  0
  3 31  1  0  0  0  0
  3 32  1  0  0  0  0
  4 29  1  0  0  0  0
  4 33  1  0  0  0  0
  4 34  1  0  0  0  0
  5 26  1  0  0  0  0
  5 27  1  0  0  0  0
  5 35  1  0  0  0  0
  5 36  1  0  0  0  0
  6 21  1  0  0  0  0
  6 37  1  0  0  0  0
  6 38  1  0  0  0  0
  6 39  1  0  0  0  0
  7  8  1  0  0  0  0
  8 12  2  0  0  0  0
 10 11  2  0  0  0  0
 10 40  1  0  0  0  0
 11 12  1  0  0  0  0
 11 41  1  0  0  0  0
 12 13  1  0  0  0  0
 13 14  1  0  0  0  0
 14 15  2  0  0  0  0
 14 19  1  0  0  0  0
 15 16  1  0  0  0  0
 15 42  1  0  0  0  0
 16 17  2  0  0  0  0
 16 22  1  0  0  0  0
 17 18  1  0  0  0  0
 17 43  1  0  0  0  0
 18 24  2  0  0  0  0
 19 20  2  0  0  0  0
 19 21  1  0  0  0  0
 21 22  1  0  0  0  0
 22 23  2  0  0  0  0
 23 24  1  0  0  0  0
 24 25  1  0  0  0  0
 25 26  1  0  0  0  0
 25 44  1  0  0  0  0
 26 45  1  0  0  0  0
 27 28  1  0  0  0  0
 27 46  1  0  0  0  0
 27 47  1  0  0  0  0
 28 48  1  0  0  0  0
 29 49  1  0  0  0  0
M  END
$$$$
