18639-1
 OpenBabel02232411163D
Structure written by MMmdl.
 48 49  0  0  0  0  0  0  0  0999 V2000
   24.4690   10.8480   30.7810 C   0  0  0  0  0  0  0  0  0  0  0  0
   23.1520   11.2110   30.1290 C   0  0  0  0  0  0  0  0  0  0  0  0
   22.0670   11.2800   31.1330 O   0  0  0  0  0  0  0  0  0  0  0  0
   21.4810   10.1330   31.5450 C   0  0  0  0  0  0  0  0  0  0  0  0
   21.9540    8.9440   31.1040 N   0  0  0  0  0  0  0  0  0  0  0  0
   21.2590    7.8030   31.4700 C   0  0  0  0  0  0  0  0  0  0  0  0
   20.1250    7.8350   32.2750 C   0  0  0  0  0  0  0  0  0  0  0  0
   19.6430    9.0860   32.7460 C   0  0  0  0  0  0  0  0  0  0  0  0
   18.5070    9.1220   33.5130 N   0  0  0  0  0  0  0  0  0  0  0  0
   20.3390   10.2860   32.3880 C   0  0  0  0  0  0  0  0  0  0  0  0
   19.9400   11.5830   32.7740 C   0  0  0  0  0  0  0  0  0  0  0  0
   19.6640   12.6750   33.0500 N   0  0  0  0  0  0  0  0  0  0  0  0
   21.8410    6.6380   30.9180 N   0  0  0  0  0  0  0  0  0  0  0  0
   21.2550    5.3570   30.8490 C   0  0  0  0  0  0  0  0  0  0  0  0
   20.1730    5.0980   31.3330 O   0  0  0  0  0  0  0  0  0  0  0  0
   22.0790    4.3610   30.0410 C   0  0  0  0  0  0  0  0  0  0  0  0
   23.4430    4.0860   30.6010 C   0  0  0  0  0  0  0  0  0  0  0  0
   24.5440    4.9450   30.2890 C   0  0  0  0  0  0  0  0  0  0  0  0
   24.1910    6.0000   29.4570 O   0  0  0  0  0  0  0  0  0  0  0  0
   25.1580    7.0720   29.2800 C   0  0  0  0  0  0  0  0  0  0  0  0
   25.8220    4.6940   30.7630 C   0  0  0  0  0  0  0  0  0  0  0  0
   26.0450    3.5760   31.5940 C   0  0  0  0  0  0  0  0  0  0  0  0
   27.3950    3.3140   32.1020 N   0  3  0  0  0  0  0  0  0  0  0  0
   27.5220    2.5190   33.0210 O   0  5  0  0  0  0  0  0  0  0  0  0
   28.3390    3.8970   31.5820 O   0  0  0  0  0  0  0  0  0  0  0  0
   24.9690    2.7140   31.9100 C   0  0  0  0  0  0  0  0  0  0  0  0
   23.6770    2.9760   31.3970 C   0  0  0  0  0  0  0  0  0  0  0  0
   25.3090    1.6720   32.7190 O   0  0  0  0  0  0  0  0  0  0  0  0
   24.3080    0.6360   32.9470 C   0  0  0  0  0  0  0  0  0  0  0  0
   25.2650   10.7910   29.9950 H   0  0  0  0  0  0  0  0  0  0  0  0
   24.7670   11.6090   31.5320 H   0  0  0  0  0  0  0  0  0  0  0  0
   24.4120    9.8480   31.2740 H   0  0  0  0  0  0  0  0  0  0  0  0
   23.1340   12.2680   29.7690 H   0  0  0  0  0  0  0  0  0  0  0  0
   22.8670   10.4930   29.3270 H   0  0  0  0  0  0  0  0  0  0  0  0
   19.5900    6.9190   32.5310 H   0  0  0  0  0  0  0  0  0  0  0  0
   18.0110    8.2480   33.7720 H   0  0  0  0  0  0  0  0  0  0  0  0
   18.1000   10.0060   33.8200 H   0  0  0  0  0  0  0  0  0  0  0  0
   22.7510    6.7910   30.4140 H   0  0  0  0  0  0  0  0  0  0  0  0
   21.5020    3.4000   29.9720 H   0  0  0  0  0  0  0  0  0  0  0  0
   22.1930    4.7800   29.0000 H   0  0  0  0  0  0  0  0  0  0  0  0
   25.5120    7.4510   30.2620 H   0  0  0  0  0  0  0  0  0  0  0  0
   25.9880    6.7080   28.6380 H   0  0  0  0  0  0  0  0  0  0  0  0
   24.5380    7.8370   28.7550 H   0  0  0  0  0  0  0  0  0  0  0  0
   26.6670    5.3390   30.4950 H   0  0  0  0  0  0  0  0  0  0  0  0
   22.8560    2.2910   31.6270 H   0  0  0  0  0  0  0  0  0  0  0  0
   24.8880   -0.1010   33.5530 H   0  0  0  0  0  0  0  0  0  0  0  0
   23.4560    1.0480   33.5280 H   0  0  0  0  0  0  0  0  0  0  0  0
   23.9900    0.1930   31.9780 H   0  0  0  0  0  0  0  0  0  0  0  0
  1  2  1  0  0  0  0
  1 30  1  0  0  0  0
  1 31  1  0  0  0  0
  1 32  1  0  0  0  0
  2  3  1  0  0  0  0
  2 33  1  0  0  0  0
  2 34  1  0  0  0  0
  3  4  1  0  0  0  0
  4 10  2  0  0  0  0
  4  5  1  0  0  0  0
  5  6  2  0  0  0  0
  6  7  1  0  0  0  0
  6 13  1  0  0  0  0
  7  8  2  0  0  0  0
  7 35  1  0  0  0  0
  8  9  1  0  0  0  0
  8 10  1  0  0  0  0
  9 36  1  0  0  0  0
  9 37  1  0  0  0  0
 10 11  1  0  0  0  0
 11 12  3  0  0  0  0
 13 14  1  0  0  0  0
 13 38  1  0  0  0  0
 14 15  2  0  0  0  0
 14 16  1  0  0  0  0
 16 17  1  0  0  0  0
 16 39  1  0  0  0  0
 16 40  1  0  0  0  0
 17 27  2  0  0  0  0
 17 18  1  0  0  0  0
 18 19  1  0  0  0  0
 18 21  2  0  0  0  0
 19 20  1  0  0  0  0
 20 41  1  0  0  0  0
 20 42  1  0  0  0  0
 20 43  1  0  0  0  0
 21 22  1  0  0  0  0
 21 44  1  0  0  0  0
 22 23  1  0  0  0  0
 22 26  2  0  0  0  0
 23 24  1  0  0  0  0
 23 25  2  0  0  0  0
 26 27  1  0  0  0  0
 26 28  1  0  0  0  0
 27 45  1  0  0  0  0
 28 29  1  0  0  0  0
 29 46  1  0  0  0  0
 29 47  1  0  0  0  0
 29 48  1  0  0  0  0
M  CHG  2  23   1  24  -1
M  END
$$$$
