37
                    3D
 Schrodinger Suite 2022-3.
 44 46  0  0  1  0  0  0  0  0999 V2000
    3.4850  -48.4750    7.2210 O   0  0  0  0  0  0  0  0  0  0  0  0
    3.0710  -49.3900    6.4960 C   0  0  0  0  0  0  0  0  0  0  0  0
    3.7600  -50.1790    5.8220 O   0  5  0  0  0  0  0  0  0  0  0  0
    1.5500  -49.6280    6.4190 C   0  0  0  0  0  0  0  0  0  0  0  0
   -0.3590  -50.8820    6.5700 C   0  0  0  0  0  0  0  0  0  0  0  0
   -1.3180  -51.8870    6.7820 C   0  0  0  0  0  0  0  0  0  0  0  0
   -2.6360  -51.5850    6.4760 C   0  0  0  0  0  0  0  0  0  0  0  0
   -3.0000  -50.3150    5.9690 C   0  0  0  0  0  0  0  0  0  0  0  0
   -2.0570  -49.3170    5.7600 C   0  0  0  0  0  0  0  0  0  0  0  0
   -0.7100  -49.5790    6.0610 C   0  0  0  0  0  0  0  0  0  0  0  0
    0.5120  -48.8070    5.9910 C   0  0  0  0  0  0  0  0  0  0  0  0
    0.5780  -47.3890    5.5490 C   0  0  0  0  0  0  0  0  0  0  0  0
    0.5470  -46.4000    6.7300 C   0  0  0  0  0  0  0  0  0  0  0  0
   -0.7870  -46.3830    7.4710 C   0  0  0  0  0  0  0  0  0  0  0  0
   -1.6980  -45.7330    6.5080 O   0  0  0  0  0  0  0  0  0  0  0  0
   -2.9740  -45.4710    6.8890 C   0  0  0  0  0  0  0  0  0  0  0  0
   -3.5480  -45.8390    8.1170 C   0  0  0  0  0  0  0  0  0  0  0  0
   -4.8800  -45.4930    8.3780 C   0  0  0  0  0  0  0  0  0  0  0  0
   -5.5230  -45.8410    9.6790 C   0  0  0  0  0  0  0  0  0  0  0  0
   -5.6060  -44.8090    7.3920 C   0  0  0  0  0  0  0  0  0  0  0  0
   -7.2710  -44.4590    7.6830 Cl  0  0  0  0  0  0  0  0  0  0  0  0
   -5.0430  -44.4360    6.1560 C   0  0  0  0  0  0  0  0  0  0  0  0
   -5.8680  -43.7600    5.1120 C   0  0  0  0  0  0  0  0  0  0  0  0
   -3.7110  -44.7640    5.9130 C   0  0  0  0  0  0  0  0  0  0  0  0
   -1.0440  -52.8650    7.1750 H   0  0  0  0  0  0  0  0  0  0  0  0
   -3.4150  -52.3330    6.6280 H   0  0  0  0  0  0  0  0  0  0  0  0
   -4.0500  -50.1280    5.7420 H   0  0  0  0  0  0  0  0  0  0  0  0
   -2.3660  -48.3470    5.3700 H   0  0  0  0  0  0  0  0  0  0  0  0
   -0.3040  -47.1680    4.8920 H   0  0  0  0  0  0  0  0  0  0  0  0
    1.5080  -47.2010    4.9610 H   0  0  0  0  0  0  0  0  0  0  0  0
    0.7340  -45.3710    6.3430 H   0  0  0  0  0  0  0  0  0  0  0  0
    1.3440  -46.6780    7.4620 H   0  0  0  0  0  0  0  0  0  0  0  0
   -0.7560  -45.7400    8.3750 H   0  0  0  0  0  0  0  0  0  0  0  0
   -1.1930  -47.3990    7.6660 H   0  0  0  0  0  0  0  0  0  0  0  0
   -2.9950  -46.4050    8.8620 H   0  0  0  0  0  0  0  0  0  0  0  0
   -5.9200  -44.9230   10.1760 H   0  0  0  0  0  0  0  0  0  0  0  0
   -6.3850  -46.5300    9.5080 H   0  0  0  0  0  0  0  0  0  0  0  0
   -4.8090  -46.3470   10.3680 H   0  0  0  0  0  0  0  0  0  0  0  0
   -5.2320  -43.4060    4.2680 H   0  0  0  0  0  0  0  0  0  0  0  0
   -6.6210  -44.4890    4.7170 H   0  0  0  0  0  0  0  0  0  0  0  0
   -6.4200  -42.8880    5.5320 H   0  0  0  0  0  0  0  0  0  0  0  0
   -3.2410  -44.4980    4.9720 H   0  0  0  0  0  0  0  0  0  0  0  0
    1.0300  -50.8840    6.7830 N   0  0  0  0  0  0  0  0  0  0  0  0
    1.5390  -51.6900    7.1270 H   0  0  0  0  0  0  0  0  0  0  0  0
  1  2  2  0  0  0  0
  2  3  1  0  0  0  0
  2  4  1  0  0  0  0
  4 11  2  0  0  0  0
  4 43  1  0  0  0  0
  5  6  1  0  0  0  0
  5 10  2  0  0  0  0
  5 43  1  0  0  0  0
  6  7  2  0  0  0  0
  6 25  1  0  0  0  0
  7  8  1  0  0  0  0
  7 26  1  0  0  0  0
  8  9  2  0  0  0  0
  8 27  1  0  0  0  0
  9 10  1  0  0  0  0
  9 28  1  0  0  0  0
 10 11  1  0  0  0  0
 11 12  1  0  0  0  0
 12 29  1  0  0  0  0
 12 30  1  0  0  0  0
 12 13  1  0  0  0  0
 13 14  1  0  0  0  0
 13 31  1  0  0  0  0
 13 32  1  0  0  0  0
 14 15  1  0  0  0  0
 14 33  1  0  0  0  0
 14 34  1  0  0  0  0
 15 16  1  0  0  0  0
 16 17  1  0  0  0  0
 16 24  2  0  0  0  0
 17 18  2  0  0  0  0
 17 35  1  0  0  0  0
 18 19  1  0  0  0  0
 18 20  1  0  0  0  0
 19 36  1  0  0  0  0
 19 37  1  0  0  0  0
 19 38  1  0  0  0  0
 20 21  1  0  0  0  0
 20 22  2  0  0  0  0
 22 23  1  0  0  0  0
 22 24  1  0  0  0  0
 23 39  1  0  0  0  0
 23 40  1  0  0  0  0
 23 41  1  0  0  0  0
 24 42  1  0  0  0  0
 43 44  1  0  0  0  0
M  CHG  1   3  -1
M  END
$$$$
