p38a_3flq
 OpenBabel02232411163D
Structure written by MMmdl.
 47 49  0  0  1  0  0  0  0  0999 V2000
   34.7050   39.1100   23.9940 C   0  0  0  0  0  0  0  0  0  0  0  0
   34.8580   37.9560   21.4990 C   0  0  0  0  0  0  0  0  0  0  0  0
   35.0200   37.3320   20.2150 C   0  0  0  0  0  0  0  0  0  0  0  0
   34.8250   37.1610   22.6860 C   0  0  0  0  0  0  0  0  0  0  0  0
   35.0190   35.9810   20.1470 C   0  0  0  0  0  0  0  0  0  0  0  0
   34.7420   39.0630   26.5380 C   0  0  1  0  0  0  0  0  0  0  0  0
   35.7950   39.7620   27.4160 C   0  0  0  0  0  0  0  0  0  0  0  0
   32.8080   36.4530   27.3280 C   0  0  0  0  0  0  0  0  0  0  0  0
   34.8120   35.7610   22.5850 N   0  0  0  0  0  0  0  0  0  0  0  0
   33.3610   39.1650   27.2180 C   0  0  0  0  0  0  0  0  0  0  0  0
   38.3550   37.1530   14.9590 F   0  0  0  0  0  0  0  0  0  0  0  0
   37.6100   36.6650   15.9490 C   0  0  0  0  0  0  0  0  0  0  0  0
   36.2630   36.4020   15.6960 C   0  0  0  0  0  0  0  0  0  0  0  0
   35.4490   35.9570   16.7440 C   0  0  0  0  0  0  0  0  0  0  0  0
   38.2110   36.4830   17.2020 C   0  0  0  0  0  0  0  0  0  0  0  0
   37.3800   36.0460   18.2290 C   0  0  0  0  0  0  0  0  0  0  0  0
   37.8760   35.8810   19.4490 F   0  0  0  0  0  0  0  0  0  0  0  0
   36.0100   35.7780   18.0110 C   0  0  0  0  0  0  0  0  0  0  0  0
   35.2060   35.2020   19.0030 O   0  0  0  0  0  0  0  0  0  0  0  0
   34.7530   35.0940   21.3070 C   0  0  0  0  0  0  0  0  0  0  0  0
   34.5020   33.9110   21.2560 O   0  0  0  0  0  0  0  0  0  0  0  0
   34.7440   39.3630   21.6600 C   0  0  0  0  0  0  0  0  0  0  0  0
   34.6440   39.9470   22.8620 N   0  0  0  0  0  0  0  0  0  0  0  0
   34.7860   37.7350   23.9340 N   0  0  0  0  0  0  0  0  0  0  0  0
   34.8000   34.9290   23.8190 C   0  0  0  0  0  0  0  0  0  0  0  0
   34.7360   39.7530   25.2170 N   0  0  0  0  0  0  0  0  0  0  0  0
   32.1750   37.9620   26.7540 S   0  0  0  0  0  0  0  0  0  0  0  0
   30.9070   38.2790   27.4360 O   0  0  0  0  0  0  0  0  0  0  0  0
   32.0040   37.9330   25.2900 O   0  0  0  0  0  0  0  0  0  0  0  0
   35.1580   37.9710   19.3380 H   0  0  0  0  0  0  0  0  0  0  0  0
   35.0440   37.9870   26.4160 H   0  0  0  0  0  0  0  0  0  0  0  0
   36.7960   39.6890   26.9510 H   0  0  0  0  0  0  0  0  0  0  0  0
   35.5420   40.8370   27.5690 H   0  0  0  0  0  0  0  0  0  0  0  0
   35.8370   39.2700   28.4170 H   0  0  0  0  0  0  0  0  0  0  0  0
   32.0260   35.6530   27.4050 H   0  0  0  0  0  0  0  0  0  0  0  0
   33.6280   36.0300   26.6920 H   0  0  0  0  0  0  0  0  0  0  0  0
   33.2490   36.5510   28.3590 H   0  0  0  0  0  0  0  0  0  0  0  0
   33.5390   39.0870   28.3340 H   0  0  0  0  0  0  0  0  0  0  0  0
   32.9750   40.2120   27.0810 H   0  0  0  0  0  0  0  0  0  0  0  0
   35.8310   36.5560   14.7050 H   0  0  0  0  0  0  0  0  0  0  0  0
   34.3850   35.7670   16.5650 H   0  0  0  0  0  0  0  0  0  0  0  0
   39.2690   36.7090   17.3700 H   0  0  0  0  0  0  0  0  0  0  0  0
   34.7280   40.0220   20.7740 H   0  0  0  0  0  0  0  0  0  0  0  0
   35.1140   33.8790   23.5780 H   0  0  0  0  0  0  0  0  0  0  0  0
   35.5120   35.3490   24.5810 H   0  0  0  0  0  0  0  0  0  0  0  0
   33.7710   34.9080   24.2680 H   0  0  0  0  0  0  0  0  0  0  0  0
   34.4760   40.7600   25.2650 H   0  0  0  0  0  0  0  0  0  0  0  0
  1 23  2  0  0  0  0
  1 24  1  0  0  0  0
  1 26  1  0  0  0  0
  2  3  1  0  0  0  0
  2  4  1  0  0  0  0
  2 22  2  0  0  0  0
  3  5  2  0  0  0  0
  3 30  1  0  0  0  0
  4  9  1  0  0  0  0
  4 24  2  0  0  0  0
  5 19  1  0  0  0  0
  5 20  1  0  0  0  0
  6  7  1  0  0  0  0
  6 10  1  0  0  0  0
  6 26  1  0  0  0  0
  6 31  1  6  0  0  0
  7 32  1  0  0  0  0
  7 33  1  0  0  0  0
  7 34  1  0  0  0  0
  8 27  1  0  0  0  0
  8 35  1  0  0  0  0
  8 36  1  0  0  0  0
  8 37  1  0  0  0  0
  9 20  1  0  0  0  0
  9 25  1  0  0  0  0
 10 27  1  0  0  0  0
 10 38  1  0  0  0  0
 10 39  1  0  0  0  0
 11 12  1  0  0  0  0
 12 13  2  0  0  0  0
 12 15  1  0  0  0  0
 13 14  1  0  0  0  0
 13 40  1  0  0  0  0
 14 18  2  0  0  0  0
 14 41  1  0  0  0  0
 15 16  2  0  0  0  0
 15 42  1  0  0  0  0
 16 17  1  0  0  0  0
 16 18  1  0  0  0  0
 18 19  1  0  0  0  0
 20 21  2  0  0  0  0
 22 23  1  0  0  0  0
 22 43  1  0  0  0  0
 25 44  1  0  0  0  0
 25 45  1  0  0  0  0
 25 46  1  0  0  0  0
 26 47  1  0  0  0  0
 27 28  2  0  0  0  0
 27 29  2  0  0  0  0
M  END
$$$$
