p38a_3flq
 OpenBabel02232411163D
Structure written by MMmdl.
 47 49  0  0  1  0  0  0  0  0999 V2000
   33.8800   39.2050   23.7120 C   0  0  0  0  0  0  0  0  0  0  0  0
   34.6480   37.9890   21.3600 C   0  0  0  0  0  0  0  0  0  0  0  0
   35.0960   37.3170   20.1690 C   0  0  0  0  0  0  0  0  0  0  0  0
   34.1390   37.2340   22.4570 C   0  0  0  0  0  0  0  0  0  0  0  0
   35.0280   35.9680   20.1180 C   0  0  0  0  0  0  0  0  0  0  0  0
   32.5170   39.4220   25.8600 C   0  0  1  0  0  0  0  0  0  0  0  0
   31.2180   39.1360   25.0950 C   0  0  0  0  0  0  0  0  0  0  0  0
   35.3840   39.2690   27.5300 C   0  0  0  0  0  0  0  0  0  0  0  0
   34.0180   35.8390   22.3610 N   0  0  0  0  0  0  0  0  0  0  0  0
   32.9370   38.2180   26.7130 C   0  0  0  0  0  0  0  0  0  0  0  0
   38.3270   37.2080   14.9030 F   0  0  0  0  0  0  0  0  0  0  0  0
   37.6390   36.7050   15.9250 C   0  0  0  0  0  0  0  0  0  0  0  0
   36.2910   36.3980   15.7290 C   0  0  0  0  0  0  0  0  0  0  0  0
   35.5380   35.9250   16.8090 C   0  0  0  0  0  0  0  0  0  0  0  0
   38.2950   36.5530   17.1540 C   0  0  0  0  0  0  0  0  0  0  0  0
   37.5220   36.0930   18.2160 C   0  0  0  0  0  0  0  0  0  0  0  0
   38.0610   35.9640   19.4210 F   0  0  0  0  0  0  0  0  0  0  0  0
   36.1600   35.7630   18.0490 C   0  0  0  0  0  0  0  0  0  0  0  0
   35.4540   35.1360   19.0870 O   0  0  0  0  0  0  0  0  0  0  0  0
   34.4500   35.1150   21.1940 C   0  0  0  0  0  0  0  0  0  0  0  0
   34.3260   33.9110   21.1490 O   0  0  0  0  0  0  0  0  0  0  0  0
   34.7010   39.3970   21.5220 C   0  0  0  0  0  0  0  0  0  0  0  0
   34.3370   40.0130   22.6590 N   0  0  0  0  0  0  0  0  0  0  0  0
   33.7560   37.8400   23.6310 N   0  0  0  0  0  0  0  0  0  0  0  0
   33.4390   35.0940   23.5140 C   0  0  0  0  0  0  0  0  0  0  0  0
   33.6190   39.8490   24.9240 N   0  0  0  0  0  0  0  0  0  0  0  0
   33.9120   38.5700   28.1320 S   0  0  0  0  0  0  0  0  0  0  0  0
   33.2130   39.5170   29.0330 O   0  0  0  0  0  0  0  0  0  0  0  0
   34.2000   37.3050   28.8570 O   0  0  0  0  0  0  0  0  0  0  0  0
   35.4860   37.9280   19.3520 H   0  0  0  0  0  0  0  0  0  0  0  0
   32.3460   40.3230   26.5220 H   0  0  0  0  0  0  0  0  0  0  0  0
   30.9590   39.9910   24.4360 H   0  0  0  0  0  0  0  0  0  0  0  0
   31.3110   38.2090   24.4820 H   0  0  0  0  0  0  0  0  0  0  0  0
   30.3830   38.9880   25.8160 H   0  0  0  0  0  0  0  0  0  0  0  0
   36.1670   39.3700   28.3250 H   0  0  0  0  0  0  0  0  0  0  0  0
   35.8230   38.6720   26.6900 H   0  0  0  0  0  0  0  0  0  0  0  0
   35.2140   40.3040   27.1220 H   0  0  0  0  0  0  0  0  0  0  0  0
   32.0020   37.6750   27.0300 H   0  0  0  0  0  0  0  0  0  0  0  0
   33.4720   37.4820   26.0440 H   0  0  0  0  0  0  0  0  0  0  0  0
   35.8130   36.5370   14.7560 H   0  0  0  0  0  0  0  0  0  0  0  0
   34.4740   35.7020   16.6770 H   0  0  0  0  0  0  0  0  0  0  0  0
   39.3480   36.8210   17.2830 H   0  0  0  0  0  0  0  0  0  0  0  0
   35.0350   40.0330   20.6870 H   0  0  0  0  0  0  0  0  0  0  0  0
   33.3120   34.0120   23.2540 H   0  0  0  0  0  0  0  0  0  0  0  0
   34.1120   35.1900   24.4080 H   0  0  0  0  0  0  0  0  0  0  0  0
   32.4360   35.5280   23.7820 H   0  0  0  0  0  0  0  0  0  0  0  0
   33.7260   40.8890   24.9060 H   0  0  0  0  0  0  0  0  0  0  0  0
  1 23  2  0  0  0  0
  1 24  1  0  0  0  0
  1 26  1  0  0  0  0
  2  3  1  0  0  0  0
  2  4  1  0  0  0  0
  2 22  2  0  0  0  0
  3  5  2  0  0  0  0
  3 30  1  0  0  0  0
  4  9  1  0  0  0  0
  4 24  2  0  0  0  0
  5 19  1  0  0  0  0
  5 20  1  0  0  0  0
  6  7  1  0  0  0  0
  6 10  1  0  0  0  0
  6 26  1  0  0  0  0
  6 31  1  6  0  0  0
  7 32  1  0  0  0  0
  7 33  1  0  0  0  0
  7 34  1  0  0  0  0
  8 27  1  0  0  0  0
  8 35  1  0  0  0  0
  8 36  1  0  0  0  0
  8 37  1  0  0  0  0
  9 20  1  0  0  0  0
  9 25  1  0  0  0  0
 10 27  1  0  0  0  0
 10 38  1  0  0  0  0
 10 39  1  0  0  0  0
 11 12  1  0  0  0  0
 12 13  2  0  0  0  0
 12 15  1  0  0  0  0
 13 14  1  0  0  0  0
 13 40  1  0  0  0  0
 14 18  2  0  0  0  0
 14 41  1  0  0  0  0
 15 16  2  0  0  0  0
 15 42  1  0  0  0  0
 16 17  1  0  0  0  0
 16 18  1  0  0  0  0
 18 19  1  0  0  0  0
 20 21  2  0  0  0  0
 22 23  1  0  0  0  0
 22 43  1  0  0  0  0
 25 44  1  0  0  0  0
 25 45  1  0  0  0  0
 25 46  1  0  0  0  0
 26 47  1  0  0  0  0
 27 28  2  0  0  0  0
 27 29  2  0  0  0  0
M  END
$$$$
