p38a_2h
 OpenBabel02232411163D
Structure written by MMmdl.
 46 49  0  0  0  0  0  0  0  0999 V2000
   34.5270   38.3070   27.0860 C   0  0  0  0  0  0  0  0  0  0  0  0
   34.0400   37.8360   28.4630 C   0  0  0  0  0  0  0  0  0  0  0  0
   31.7560   38.4610   27.9720 C   0  0  0  0  0  0  0  0  0  0  0  0
   32.1300   38.9440   26.5640 C   0  0  0  0  0  0  0  0  0  0  0  0
   37.2080   35.7100   16.0540 C   0  0  0  0  0  0  0  0  0  0  0  0
   32.6530   37.4250   28.4340 O   0  0  0  0  0  0  0  0  0  0  0  0
   34.0570   35.0960   21.5120 C   0  0  0  0  0  0  0  0  0  0  0  0
   36.0410   35.3890   16.7440 C   0  0  0  0  0  0  0  0  0  0  0  0
   34.0930   39.2290   24.0490 C   0  0  0  0  0  0  0  0  0  0  0  0
   33.5980   39.4160   26.5620 C   0  0  0  0  0  0  0  0  0  0  0  0
   34.3500   37.9510   21.6160 C   0  0  0  0  0  0  0  0  0  0  0  0
   34.4620   37.2600   20.3720 C   0  0  0  0  0  0  0  0  0  0  0  0
   38.3050   36.1540   16.8010 C   0  0  0  0  0  0  0  0  0  0  0  0
   38.2250   36.2440   18.1930 C   0  0  0  0  0  0  0  0  0  0  0  0
   37.0440   35.9130   18.8670 C   0  0  0  0  0  0  0  0  0  0  0  0
   34.1020   37.2190   22.8200 C   0  0  0  0  0  0  0  0  0  0  0  0
   34.4690   39.3680   21.7300 C   0  0  0  0  0  0  0  0  0  0  0  0
   34.3260   35.9070   20.3290 C   0  0  0  0  0  0  0  0  0  0  0  0
   35.9350   35.4810   18.1390 C   0  0  0  0  0  0  0  0  0  0  0  0
   33.7860   35.0770   24.0410 C   0  0  0  0  0  0  0  0  0  0  0  0
   34.9780   34.9460   16.0750 F   0  0  0  0  0  0  0  0  0  0  0  0
   34.3870   35.0290   18.8190 S   0  0  0  0  0  0  0  0  0  0  0  0
   34.3430   40.0120   22.8910 N   0  0  0  0  0  0  0  0  0  0  0  0
   33.8780   33.8970   21.5590 O   0  0  0  0  0  0  0  0  0  0  0  0
   33.9820   35.8330   22.7720 N   0  0  0  0  0  0  0  0  0  0  0  0
   33.9650   37.8580   24.0330 N   0  0  0  0  0  0  0  0  0  0  0  0
   34.0230   39.9340   25.2250 N   0  0  0  0  0  0  0  0  0  0  0  0
   35.5700   38.6970   27.1730 H   0  0  0  0  0  0  0  0  0  0  0  0
   34.5360   37.4400   26.3810 H   0  0  0  0  0  0  0  0  0  0  0  0
   34.5580   36.8980   28.7710 H   0  0  0  0  0  0  0  0  0  0  0  0
   34.1620   38.6390   29.2270 H   0  0  0  0  0  0  0  0  0  0  0  0
   31.7750   39.3040   28.7010 H   0  0  0  0  0  0  0  0  0  0  0  0
   30.7710   37.9410   27.9740 H   0  0  0  0  0  0  0  0  0  0  0  0
   31.9940   38.1080   25.8360 H   0  0  0  0  0  0  0  0  0  0  0  0
   31.4620   39.7850   26.2660 H   0  0  0  0  0  0  0  0  0  0  0  0
   37.2690   35.6460   14.9680 H   0  0  0  0  0  0  0  0  0  0  0  0
   33.6910   40.3180   27.2420 H   0  0  0  0  0  0  0  0  0  0  0  0
   34.6720   37.8560   19.4750 H   0  0  0  0  0  0  0  0  0  0  0  0
   39.0910   36.5960   18.7540 H   0  0  0  0  0  0  0  0  0  0  0  0
   37.0030   36.0170   19.9530 H   0  0  0  0  0  0  0  0  0  0  0  0
   34.6670   39.9760   20.8290 H   0  0  0  0  0  0  0  0  0  0  0  0
   34.6430   35.2770   24.7400 H   0  0  0  0  0  0  0  0  0  0  0  0
   32.8350   35.4030   24.5410 H   0  0  0  0  0  0  0  0  0  0  0  0
   33.7350   33.9760   23.8320 H   0  0  0  0  0  0  0  0  0  0  0  0
   34.0090   40.9750   25.1730 H   0  0  0  0  0  0  0  0  0  0  0  0
   39.2220   36.4530   16.2960 H   0  0  0  0  0  0  0  0  0  0  0  0
  1  2  1  0  0  0  0
  1 10  1  0  0  0  0
  1 28  1  0  0  0  0
  1 29  1  0  0  0  0
  2  6  1  0  0  0  0
  2 30  1  0  0  0  0
  2 31  1  0  0  0  0
  3  4  1  0  0  0  0
  3  6  1  0  0  0  0
  3 32  1  0  0  0  0
  3 33  1  0  0  0  0
  4 10  1  0  0  0  0
  4 34  1  0  0  0  0
  4 35  1  0  0  0  0
  5  8  2  0  0  0  0
  5 13  1  0  0  0  0
  5 36  1  0  0  0  0
  7 18  1  0  0  0  0
  7 24  2  0  0  0  0
  7 25  1  0  0  0  0
  8 19  1  0  0  0  0
  8 21  1  0  0  0  0
  9 23  2  0  0  0  0
  9 26  1  0  0  0  0
  9 27  1  0  0  0  0
 10 27  1  0  0  0  0
 10 37  1  0  0  0  0
 11 12  1  0  0  0  0
 11 16  1  0  0  0  0
 11 17  2  0  0  0  0
 12 18  2  0  0  0  0
 12 38  1  0  0  0  0
 13 14  2  0  0  0  0
 13 46  1  0  0  0  0
 14 15  1  0  0  0  0
 14 39  1  0  0  0  0
 15 19  2  0  0  0  0
 15 40  1  0  0  0  0
 16 25  1  0  0  0  0
 16 26  2  0  0  0  0
 17 23  1  0  0  0  0
 17 41  1  0  0  0  0
 18 22  1  0  0  0  0
 19 22  1  0  0  0  0
 20 25  1  0  0  0  0
 20 42  1  0  0  0  0
 20 43  1  0  0  0  0
 20 44  1  0  0  0  0
 27 45  1  0  0  0  0
M  END
$$$$
