33
 OpenBabel02232411163D
Structure written by MMmdl.
 38 40  0  0  0  0  0  0  0  0999 V2000
    3.7950  -50.1820    5.9730 O   0  0  0  0  0  0  0  0  0  0  0  0
    3.0820  -49.3110    6.5080 C   0  0  0  0  0  0  0  0  0  0  0  0
    3.4700  -48.3140    7.1290 O   0  5  0  0  0  0  0  0  0  0  0  0
    1.5640  -49.5520    6.3850 C   0  0  0  0  0  0  0  0  0  0  0  0
   -0.3490  -50.8040    6.5180 C   0  0  0  0  0  0  0  0  0  0  0  0
   -1.3150  -51.8010    6.7360 C   0  0  0  0  0  0  0  0  0  0  0  0
   -2.6290  -51.5000    6.4110 C   0  0  0  0  0  0  0  0  0  0  0  0
   -2.9820  -50.2370    5.8770 C   0  0  0  0  0  0  0  0  0  0  0  0
   -2.0320  -49.2480    5.6600 C   0  0  0  0  0  0  0  0  0  0  0  0
   -0.6900  -49.5090    5.9830 C   0  0  0  0  0  0  0  0  0  0  0  0
    0.5340  -48.7390    5.9240 C   0  0  0  0  0  0  0  0  0  0  0  0
    0.5990  -47.3290    5.4560 C   0  0  0  0  0  0  0  0  0  0  0  0
    0.5390  -46.3140    6.6140 C   0  0  0  0  0  0  0  0  0  0  0  0
   -0.7770  -46.3510    7.3850 C   0  0  0  0  0  0  0  0  0  0  0  0
   -1.7520  -45.7580    6.4460 O   0  0  0  0  0  0  0  0  0  0  0  0
   -3.0160  -45.5320    6.8940 C   0  0  0  0  0  0  0  0  0  0  0  0
   -3.5470  -46.0150    8.1050 C   0  0  0  0  0  0  0  0  0  0  0  0
   -4.8650  -45.7060    8.4400 C   0  0  0  0  0  0  0  0  0  0  0  0
   -5.6200  -44.9180    7.5710 C   0  0  0  0  0  0  0  0  0  0  0  0
   -5.1070  -44.4300    6.3620 C   0  0  0  0  0  0  0  0  0  0  0  0
   -3.8000  -44.7450    6.0140 C   0  0  0  0  0  0  0  0  0  0  0  0
   -1.0500  -52.7750    7.1490 H   0  0  0  0  0  0  0  0  0  0  0  0
   -3.4140  -52.2400    6.5700 H   0  0  0  0  0  0  0  0  0  0  0  0
   -4.0280  -50.0500    5.6350 H   0  0  0  0  0  0  0  0  0  0  0  0
   -2.3320  -48.2830    5.2500 H   0  0  0  0  0  0  0  0  0  0  0  0
   -0.2740  -47.1320    4.7820 H   0  0  0  0  0  0  0  0  0  0  0  0
    1.5390  -47.1450    4.8830 H   0  0  0  0  0  0  0  0  0  0  0  0
    0.6660  -45.2860    6.2000 H   0  0  0  0  0  0  0  0  0  0  0  0
    1.3630  -46.5320    7.3370 H   0  0  0  0  0  0  0  0  0  0  0  0
   -0.7550  -45.6930    8.2800 H   0  0  0  0  0  0  0  0  0  0  0  0
   -1.1250  -47.3830    7.6020 H   0  0  0  0  0  0  0  0  0  0  0  0
   -2.9700  -46.6430    8.7820 H   0  0  0  0  0  0  0  0  0  0  0  0
   -3.3830  -44.3960    5.0710 H   0  0  0  0  0  0  0  0  0  0  0  0
    1.0350  -50.8050    6.7530 N   0  0  0  0  0  0  0  0  0  0  0  0
    1.5390  -51.6050    7.1190 H   0  0  0  0  0  0  0  0  0  0  0  0
   -5.7270  -43.8220    5.7000 H   0  0  0  0  0  0  0  0  0  0  0  0
   -7.2590  -44.5590    7.9880 Cl  0  0  0  0  0  0  0  0  0  0  0  0
   -5.3030  -46.0840    9.3690 H   0  0  0  0  0  0  0  0  0  0  0  0
  1  2  2  0  0  0  0
  2  3  1  0  0  0  0
  2  4  1  0  0  0  0
  4 11  2  0  0  0  0
  4 34  1  0  0  0  0
  5  6  2  0  0  0  0
  5 10  1  0  0  0  0
  5 34  1  0  0  0  0
  6  7  1  0  0  0  0
  6 22  1  0  0  0  0
  7  8  2  0  0  0  0
  7 23  1  0  0  0  0
  8  9  1  0  0  0  0
  8 24  1  0  0  0  0
  9 10  2  0  0  0  0
  9 25  1  0  0  0  0
 10 11  1  0  0  0  0
 11 12  1  0  0  0  0
 12 26  1  0  0  0  0
 12 27  1  0  0  0  0
 12 13  1  0  0  0  0
 13 14  1  0  0  0  0
 13 28  1  0  0  0  0
 13 29  1  0  0  0  0
 14 15  1  0  0  0  0
 14 30  1  0  0  0  0
 14 31  1  0  0  0  0
 15 16  1  0  0  0  0
 16 17  2  0  0  0  0
 16 21  1  0  0  0  0
 17 18  1  0  0  0  0
 17 32  1  0  0  0  0
 18 19  2  0  0  0  0
 18 38  1  0  0  0  0
 19 20  1  0  0  0  0
 19 37  1  0  0  0  0
 20 21  2  0  0  0  0
 20 36  1  0  0  0  0
 21 33  1  0  0  0  0
 34 35  1  0  0  0  0
M  CHG  1   3  -1
M  END
$$$$
