27
 OpenBabel02232411163D
Structure written by MMmdl.
 38 40  0  0  0  0  0  0  0  0999 V2000
    3.3970  -48.2190    7.1010 O   0  0  0  0  0  0  0  0  0  0  0  0
    3.0040  -49.2050    6.4630 C   0  0  0  0  0  0  0  0  0  0  0  0
    3.7150  -50.0480    5.8810 O   0  5  0  0  0  0  0  0  0  0  0  0
    1.4890  -49.4760    6.3790 C   0  0  0  0  0  0  0  0  0  0  0  0
   -0.3850  -50.7850    6.5330 C   0  0  0  0  0  0  0  0  0  0  0  0
   -1.3190  -51.8120    6.7560 C   0  0  0  0  0  0  0  0  0  0  0  0
   -2.6460  -51.5460    6.4500 C   0  0  0  0  0  0  0  0  0  0  0  0
   -3.0430  -50.2920    5.9300 C   0  0  0  0  0  0  0  0  0  0  0  0
   -2.1260  -49.2730    5.7110 C   0  0  0  0  0  0  0  0  0  0  0  0
   -0.7730  -49.4950    6.0170 C   0  0  0  0  0  0  0  0  0  0  0  0
    0.4270  -48.6880    5.9490 C   0  0  0  0  0  0  0  0  0  0  0  0
    0.4390  -47.2710    5.4960 C   0  0  0  0  0  0  0  0  0  0  0  0
    0.3250  -46.2660    6.6570 C   0  0  0  0  0  0  0  0  0  0  0  0
   -1.0080  -46.3240    7.4030 C   0  0  0  0  0  0  0  0  0  0  0  0
   -1.9760  -45.7530    6.4480 O   0  0  0  0  0  0  0  0  0  0  0  0
   -3.2300  -45.4540    6.8930 C   0  0  0  0  0  0  0  0  0  0  0  0
   -3.7840  -45.8770    8.1130 C   0  0  0  0  0  0  0  0  0  0  0  0
   -5.0880  -45.4820    8.4290 C   0  0  0  0  0  0  0  0  0  0  0  0
   -5.8280  -44.6820    7.5560 C   0  0  0  0  0  0  0  0  0  0  0  0
   -5.2670  -44.2790    6.3340 C   0  0  0  0  0  0  0  0  0  0  0  0
   -3.9750  -44.6580    5.9890 C   0  0  0  0  0  0  0  0  0  0  0  0
   -1.0210  -52.7800    7.1570 H   0  0  0  0  0  0  0  0  0  0  0  0
   -3.4060  -52.3110    6.6140 H   0  0  0  0  0  0  0  0  0  0  0  0
   -4.0980  -50.1320    5.7010 H   0  0  0  0  0  0  0  0  0  0  0  0
   -2.4590  -48.3140    5.3110 H   0  0  0  0  0  0  0  0  0  0  0  0
   -0.4340  -47.1050    4.8120 H   0  0  0  0  0  0  0  0  0  0  0  0
    1.3770  -47.0450    4.9350 H   0  0  0  0  0  0  0  0  0  0  0  0
    0.4420  -45.2330    6.2520 H   0  0  0  0  0  0  0  0  0  0  0  0
    1.1350  -46.4650    7.4000 H   0  0  0  0  0  0  0  0  0  0  0  0
   -1.0030  -45.6670    8.2990 H   0  0  0  0  0  0  0  0  0  0  0  0
   -1.3440  -47.3580    7.6220 H   0  0  0  0  0  0  0  0  0  0  0  0
   -3.2410  -46.5130    8.8060 H   0  0  0  0  0  0  0  0  0  0  0  0
   -3.5400  -44.3550    5.0410 H   0  0  0  0  0  0  0  0  0  0  0  0
    1.0020  -50.7470    6.7450 N   0  0  0  0  0  0  0  0  0  0  0  0
    1.5340  -51.5360    7.0920 H   0  0  0  0  0  0  0  0  0  0  0  0
   -5.8550  -43.6640    5.6500 H   0  0  0  0  0  0  0  0  0  0  0  0
   -6.8410  -44.3800    7.8140 H   0  0  0  0  0  0  0  0  0  0  0  0
   -5.5370  -45.8060    9.3720 H   0  0  0  0  0  0  0  0  0  0  0  0
  1  2  2  0  0  0  0
  2  3  1  0  0  0  0
  2  4  1  0  0  0  0
  4 11  2  0  0  0  0
  4 34  1  0  0  0  0
  5  6  2  0  0  0  0
  5 10  1  0  0  0  0
  5 34  1  0  0  0  0
  6  7  1  0  0  0  0
  6 22  1  0  0  0  0
  7  8  2  0  0  0  0
  7 23  1  0  0  0  0
  8  9  1  0  0  0  0
  8 24  1  0  0  0  0
  9 10  2  0  0  0  0
  9 25  1  0  0  0  0
 10 11  1  0  0  0  0
 11 12  1  0  0  0  0
 12 26  1  0  0  0  0
 12 27  1  0  0  0  0
 12 13  1  0  0  0  0
 13 14  1  0  0  0  0
 13 28  1  0  0  0  0
 13 29  1  0  0  0  0
 14 15  1  0  0  0  0
 14 30  1  0  0  0  0
 14 31  1  0  0  0  0
 15 16  1  0  0  0  0
 16 17  2  0  0  0  0
 16 21  1  0  0  0  0
 17 18  1  0  0  0  0
 17 32  1  0  0  0  0
 18 19  2  0  0  0  0
 18 38  1  0  0  0  0
 19 20  1  0  0  0  0
 19 37  1  0  0  0  0
 20 21  2  0  0  0  0
 20 36  1  0  0  0  0
 21 33  1  0  0  0  0
 34 35  1  0  0  0  0
M  CHG  1   3  -1
M  END
$$$$
