p38a_3flw
 OpenBabel02232411163D
Structure written by MMmdl.
 49 51  0  0  0  0  0  0  0  0999 V2000
   38.2550   36.5260   17.1790 C   0  0  0  0  0  0  0  0  0  0  0  0
   37.6150   36.6930   15.9430 C   0  0  0  0  0  0  0  0  0  0  0  0
   33.8890   39.7790   27.5320 C   0  0  0  0  0  0  0  0  0  0  0  0
   35.3870   39.5050   27.7140 C   0  0  0  0  0  0  0  0  0  0  0  0
   31.8060   39.4210   26.1640 C   0  0  0  0  0  0  0  0  0  0  0  0
   34.0550   35.0590   23.7470 C   0  0  0  0  0  0  0  0  0  0  0  0
   37.9860   35.9340   19.4410 F   0  0  0  0  0  0  0  0  0  0  0  0
   37.4590   36.0820   18.2320 C   0  0  0  0  0  0  0  0  0  0  0  0
   38.3260   37.1800   14.9290 F   0  0  0  0  0  0  0  0  0  0  0  0
   36.2630   36.4140   15.7310 C   0  0  0  0  0  0  0  0  0  0  0  0
   35.4870   35.9590   16.8030 C   0  0  0  0  0  0  0  0  0  0  0  0
   36.0910   35.7860   18.0510 C   0  0  0  0  0  0  0  0  0  0  0  0
   35.3500   35.1800   19.0760 O   0  0  0  0  0  0  0  0  0  0  0  0
   35.0240   36.0020   20.1530 C   0  0  0  0  0  0  0  0  0  0  0  0
   35.0610   37.3530   20.1960 C   0  0  0  0  0  0  0  0  0  0  0  0
   34.7310   38.0140   21.4300 C   0  0  0  0  0  0  0  0  0  0  0  0
   34.7070   39.4260   21.5700 C   0  0  0  0  0  0  0  0  0  0  0  0
   34.4500   40.0410   22.7360 N   0  0  0  0  0  0  0  0  0  0  0  0
   34.5810   35.1400   21.2820 C   0  0  0  0  0  0  0  0  0  0  0  0
   34.4070   33.9430   21.2330 O   0  0  0  0  0  0  0  0  0  0  0  0
   34.3520   35.8470   22.5180 N   0  0  0  0  0  0  0  0  0  0  0  0
   34.4180   37.2450   22.5900 C   0  0  0  0  0  0  0  0  0  0  0  0
   34.1490   37.8450   23.7970 N   0  0  0  0  0  0  0  0  0  0  0  0
   34.1950   39.2240   23.8500 C   0  0  0  0  0  0  0  0  0  0  0  0
   34.0310   39.8470   25.0740 N   0  0  0  0  0  0  0  0  0  0  0  0
   33.3330   39.1810   26.2180 C   0  0  0  0  0  0  0  0  0  0  0  0
   31.0940   38.9720   24.8810 C   0  0  0  0  0  0  0  0  0  0  0  0
   31.2310   37.5700   24.6190 O   0  0  0  0  0  0  0  0  0  0  0  0
   35.7970   39.7620   29.0690 O   0  0  0  0  0  0  0  0  0  0  0  0
   39.3120   36.7690   17.3180 H   0  0  0  0  0  0  0  0  0  0  0  0
   33.3220   39.3260   28.3840 H   0  0  0  0  0  0  0  0  0  0  0  0
   33.7030   40.8810   27.5510 H   0  0  0  0  0  0  0  0  0  0  0  0
   35.6220   38.4240   27.5840 H   0  0  0  0  0  0  0  0  0  0  0  0
   35.9870   40.1480   27.0330 H   0  0  0  0  0  0  0  0  0  0  0  0
   31.3510   38.8870   27.0360 H   0  0  0  0  0  0  0  0  0  0  0  0
   31.6170   40.5170   26.2890 H   0  0  0  0  0  0  0  0  0  0  0  0
   34.6310   35.4710   24.6210 H   0  0  0  0  0  0  0  0  0  0  0  0
   32.9600   35.1140   23.9820 H   0  0  0  0  0  0  0  0  0  0  0  0
   34.3470   33.9870   23.5960 H   0  0  0  0  0  0  0  0  0  0  0  0
   35.8010   36.5610   14.7530 H   0  0  0  0  0  0  0  0  0  0  0  0
   34.4210   35.7590   16.6580 H   0  0  0  0  0  0  0  0  0  0  0  0
   35.3430   37.9700   19.3400 H   0  0  0  0  0  0  0  0  0  0  0  0
   34.8860   40.0690   20.6930 H   0  0  0  0  0  0  0  0  0  0  0  0
   33.9480   40.8860   25.0910 H   0  0  0  0  0  0  0  0  0  0  0  0
   33.5510   38.0800   26.1960 H   0  0  0  0  0  0  0  0  0  0  0  0
   29.9920   39.1040   24.9980 H   0  0  0  0  0  0  0  0  0  0  0  0
   31.4770   39.5370   24.0040 H   0  0  0  0  0  0  0  0  0  0  0  0
   32.1930   37.3690   24.5210 H   0  0  0  0  0  0  0  0  0  0  0  0
   35.5630   40.6940   29.3110 H   0  0  0  0  0  0  0  0  0  0  0  0
  1  2  2  0  0  0  0
  1  8  1  0  0  0  0
  1 30  1  0  0  0  0
  2  9  1  0  0  0  0
  2 10  1  0  0  0  0
  3  4  1  0  0  0  0
  3 26  1  0  0  0  0
  3 31  1  0  0  0  0
  3 32  1  0  0  0  0
  4 29  1  0  0  0  0
  4 33  1  0  0  0  0
  4 34  1  0  0  0  0
  5 26  1  0  0  0  0
  5 27  1  0  0  0  0
  5 35  1  0  0  0  0
  5 36  1  0  0  0  0
  6 21  1  0  0  0  0
  6 37  1  0  0  0  0
  6 38  1  0  0  0  0
  6 39  1  0  0  0  0
  7  8  1  0  0  0  0
  8 12  2  0  0  0  0
 10 11  2  0  0  0  0
 10 40  1  0  0  0  0
 11 12  1  0  0  0  0
 11 41  1  0  0  0  0
 12 13  1  0  0  0  0
 13 14  1  0  0  0  0
 14 15  2  0  0  0  0
 14 19  1  0  0  0  0
 15 16  1  0  0  0  0
 15 42  1  0  0  0  0
 16 17  2  0  0  0  0
 16 22  1  0  0  0  0
 17 18  1  0  0  0  0
 17 43  1  0  0  0  0
 18 24  2  0  0  0  0
 19 20  2  0  0  0  0
 19 21  1  0  0  0  0
 21 22  1  0  0  0  0
 22 23  2  0  0  0  0
 23 24  1  0  0  0  0
 24 25  1  0  0  0  0
 25 26  1  0  0  0  0
 25 44  1  0  0  0  0
 26 45  1  0  0  0  0
 27 28  1  0  0  0  0
 27 46  1  0  0  0  0
 27 47  1  0  0  0  0
 28 48  1  0  0  0  0
 29 49  1  0  0  0  0
M  END
$$$$
