29
 OpenBabel02232411153D
Structure written by MMmdl.
 56 59  0  0  0  0  0  0  0  0999 V2000
    1.7540   28.9700    6.7320 C   0  0  0  0  0  0  0  0  0  0  0  0
   -1.6830   31.5530    8.0230 C   0  0  0  0  0  0  0  0  0  0  0  0
   -0.1150   26.0860    8.9090 C   0  0  0  0  0  0  0  0  0  0  0  0
   -0.9160   25.3460    9.9870 C   0  0  0  0  0  0  0  0  0  0  0  0
   -0.6590   23.8330    9.7980 C   0  0  0  0  0  0  0  0  0  0  0  0
   -1.3510   23.0120   10.8950 C   0  0  0  0  0  0  0  0  0  0  0  0
   -0.9360   23.4810   12.2990 C   0  0  0  0  0  0  0  0  0  0  0  0
   -1.1970   24.9840   12.4900 C   0  0  0  0  0  0  0  0  0  0  0  0
   -0.5080   25.8150   11.3970 C   0  0  0  0  0  0  0  0  0  0  0  0
    5.2540   25.7380    5.5540 C   0  0  0  0  0  0  0  0  0  0  0  0
    5.2350   25.0790    6.7860 C   0  0  0  0  0  0  0  0  0  0  0  0
    4.4410   25.5870    7.8260 C   0  0  0  0  0  0  0  0  0  0  0  0
    3.6570   26.7200    7.6440 C   0  0  0  0  0  0  0  0  0  0  0  0
    1.0660   28.0070    7.4640 N   0  0  0  0  0  0  0  0  0  0  0  0
   -0.1100   28.3310    8.0610 C   0  0  0  0  0  0  0  0  0  0  0  0
   -0.7600   27.4220    8.8020 O   0  0  0  0  0  0  0  0  0  0  0  0
   -0.6390   29.6410    7.9180 C   0  0  0  0  0  0  0  0  0  0  0  0
   -1.7760   30.2820    8.4230 N   0  0  0  0  0  0  0  0  0  0  0  0
   -0.4890   31.7970    7.2570 N   0  0  0  0  0  0  0  0  0  0  0  0
    0.1730   30.5790    7.1620 C   0  0  0  0  0  0  0  0  0  0  0  0
    1.3570   30.2770    6.5320 N   0  0  0  0  0  0  0  0  0  0  0  0
    2.9430   28.5670    6.1220 N   0  0  0  0  0  0  0  0  0  0  0  0
    3.6790   27.3790    6.4010 C   0  0  0  0  0  0  0  0  0  0  0  0
    4.5040   26.8930    5.3630 C   0  0  0  0  0  0  0  0  0  0  0  0
   -2.3840   32.3530    8.2440 H   0  0  0  0  0  0  0  0  0  0  0  0
    0.9480   26.2230    9.2050 H   0  0  0  0  0  0  0  0  0  0  0  0
   -0.2100   25.6150    7.9090 H   0  0  0  0  0  0  0  0  0  0  0  0
   -2.0050   25.5470    9.8540 H   0  0  0  0  0  0  0  0  0  0  0  0
   -1.0420   23.5120    8.8040 H   0  0  0  0  0  0  0  0  0  0  0  0
    0.4400   23.6360    9.8380 H   0  0  0  0  0  0  0  0  0  0  0  0
   -2.4520   23.1180   10.7900 H   0  0  0  0  0  0  0  0  0  0  0  0
   -1.0780   21.9370   10.7770 H   0  0  0  0  0  0  0  0  0  0  0  0
   -1.5080   22.9060   13.0630 H   0  0  0  0  0  0  0  0  0  0  0  0
    0.1510   23.2820   12.4400 H   0  0  0  0  0  0  0  0  0  0  0  0
   -2.2930   25.1760   12.4790 H   0  0  0  0  0  0  0  0  0  0  0  0
   -0.7950   25.2980   13.4820 H   0  0  0  0  0  0  0  0  0  0  0  0
    0.5980   25.7130   11.5210 H   0  0  0  0  0  0  0  0  0  0  0  0
   -0.7800   26.8870   11.5230 H   0  0  0  0  0  0  0  0  0  0  0  0
    5.8490   25.3600    4.7140 H   0  0  0  0  0  0  0  0  0  0  0  0
    4.4260   25.0970    8.8090 H   0  0  0  0  0  0  0  0  0  0  0  0
    3.0290   27.0760    8.4620 H   0  0  0  0  0  0  0  0  0  0  0  0
   -0.2260   32.6790    6.7920 H   0  0  0  0  0  0  0  0  0  0  0  0
    3.4300   29.2290    5.4710 H   0  0  0  0  0  0  0  0  0  0  0  0
    4.5570   27.4170    4.4100 H   0  0  0  0  0  0  0  0  0  0  0  0
    6.2210   23.7060    7.0880 S   0  0  0  0  0  0  0  0  0  0  0  0
    7.1630   23.4540    5.9950 O   0  0  0  0  0  0  0  0  0  0  0  0
    6.8320   23.9060    8.3970 O   0  0  0  0  0  0  0  0  0  0  0  0
    5.1990   22.2940    7.1640 N   0  0  0  0  0  0  0  0  0  0  0  0
    4.6000   21.9680    5.8380 C   0  0  0  0  0  0  0  0  0  0  0  0
    5.4060   21.6340    5.1340 H   0  0  0  0  0  0  0  0  0  0  0  0
    3.8570   21.1340    5.9420 H   0  0  0  0  0  0  0  0  0  0  0  0
    4.0490   22.8340    5.3840 H   0  0  0  0  0  0  0  0  0  0  0  0
    4.1320   22.4000    8.1970 C   0  0  0  0  0  0  0  0  0  0  0  0
    3.6210   21.4080    8.3150 H   0  0  0  0  0  0  0  0  0  0  0  0
    4.5810   22.6760    9.1870 H   0  0  0  0  0  0  0  0  0  0  0  0
    3.3310   23.1400    7.9270 H   0  0  0  0  0  0  0  0  0  0  0  0
  1 14  2  0  0  0  0
  1 21  1  0  0  0  0
  1 22  1  0  0  0  0
  2 18  2  0  0  0  0
  2 19  1  0  0  0  0
  2 25  1  0  0  0  0
  3  4  1  0  0  0  0
  3 16  1  0  0  0  0
  3 26  1  0  0  0  0
  3 27  1  0  0  0  0
  4  5  1  0  0  0  0
  4  9  1  0  0  0  0
  4 28  1  0  0  0  0
  5  6  1  0  0  0  0
  5 29  1  0  0  0  0
  5 30  1  0  0  0  0
  6  7  1  0  0  0  0
  6 31  1  0  0  0  0
  6 32  1  0  0  0  0
  7  8  1  0  0  0  0
  7 33  1  0  0  0  0
  7 34  1  0  0  0  0
  8  9  1  0  0  0  0
  8 35  1  0  0  0  0
  8 36  1  0  0  0  0
  9 37  1  0  0  0  0
  9 38  1  0  0  0  0
 10 11  2  0  0  0  0
 10 24  1  0  0  0  0
 10 39  1  0  0  0  0
 11 12  1  0  0  0  0
 11 45  1  0  0  0  0
 12 13  2  0  0  0  0
 12 40  1  0  0  0  0
 13 23  1  0  0  0  0
 13 41  1  0  0  0  0
 14 15  1  0  0  0  0
 15 16  1  0  0  0  0
 15 17  2  0  0  0  0
 17 18  1  0  0  0  0
 17 20  1  0  0  0  0
 19 20  1  0  0  0  0
 19 42  1  0  0  0  0
 20 21  2  0  0  0  0
 22 23  1  0  0  0  0
 22 43  1  0  0  0  0
 23 24  2  0  0  0  0
 24 44  1  0  0  0  0
 45 46  2  0  0  0  0
 45 47  2  0  0  0  0
 45 48  1  0  0  0  0
 48 49  1  0  0  0  0
 48 53  1  0  0  0  0
 49 50  1  0  0  0  0
 49 51  1  0  0  0  0
 49 52  1  0  0  0  0
 53 54  1  0  0  0  0
 53 55  1  0  0  0  0
 53 56  1  0  0  0  0
M  END
$$$$
