p38a_2o
 OpenBabel02232411163D
Structure written by MMmdl.
 55 58  0  0  0  0  0  0  0  0999 V2000
   38.2720   36.5310   17.1730 C   0  0  0  0  0  0  0  0  0  0  0  0
   34.5450   35.0880   21.2550 C   0  0  0  0  0  0  0  0  0  0  0  0
   37.4880   36.0830   18.2330 C   0  0  0  0  0  0  0  0  0  0  0  0
   34.0000   39.1540   23.8270 C   0  0  0  0  0  0  0  0  0  0  0  0
   34.6560   37.9670   21.4230 C   0  0  0  0  0  0  0  0  0  0  0  0
   35.0470   37.3150   20.2020 C   0  0  0  0  0  0  0  0  0  0  0  0
   37.6220   36.6900   15.9410 C   0  0  0  0  0  0  0  0  0  0  0  0
   36.2710   36.3990   15.7390 C   0  0  0  0  0  0  0  0  0  0  0  0
   35.5070   35.9400   16.8180 C   0  0  0  0  0  0  0  0  0  0  0  0
   34.2670   37.1880   22.5510 C   0  0  0  0  0  0  0  0  0  0  0  0
   34.6500   39.3790   21.5860 C   0  0  0  0  0  0  0  0  0  0  0  0
   35.0250   35.9630   20.1520 C   0  0  0  0  0  0  0  0  0  0  0  0
   36.1230   35.7710   18.0610 C   0  0  0  0  0  0  0  0  0  0  0  0
   38.0230   35.9460   19.4390 F   0  0  0  0  0  0  0  0  0  0  0  0
   35.4020   35.1460   19.0880 O   0  0  0  0  0  0  0  0  0  0  0  0
   34.3440   39.9860   22.7440 N   0  0  0  0  0  0  0  0  0  0  0  0
   34.4400   33.8820   21.2000 O   0  0  0  0  0  0  0  0  0  0  0  0
   34.2160   35.7830   22.4740 N   0  0  0  0  0  0  0  0  0  0  0  0
   33.9490   37.7740   23.7470 N   0  0  0  0  0  0  0  0  0  0  0  0
   33.6770   39.7390   25.0270 N   0  0  0  0  0  0  0  0  0  0  0  0
   39.3280   36.7840   17.3040 H   0  0  0  0  0  0  0  0  0  0  0  0
   35.3590   37.9390   19.3610 H   0  0  0  0  0  0  0  0  0  0  0  0
   35.7980   36.5420   14.7650 H   0  0  0  0  0  0  0  0  0  0  0  0
   34.4410   35.7310   16.6830 H   0  0  0  0  0  0  0  0  0  0  0  0
   34.8990   40.0280   20.7310 H   0  0  0  0  0  0  0  0  0  0  0  0
   33.7330   40.7660   25.1440 H   0  0  0  0  0  0  0  0  0  0  0  0
   38.3220   37.1790   14.9200 F   0  0  0  0  0  0  0  0  0  0  0  0
   33.2340   40.6340   28.1350 C   0  0  0  0  0  0  0  0  0  0  0  0
   32.4150   39.7670   27.1700 C   0  0  0  0  0  0  0  0  0  0  0  0
   33.2720   38.9150   26.2130 C   0  0  0  0  0  0  0  0  0  0  0  0
   34.4990   38.3100   26.9270 C   0  0  0  0  0  0  0  0  0  0  0  0
   35.2220   39.3330   27.8020 C   0  0  0  0  0  0  0  0  0  0  0  0
   34.3100   39.9110   28.7660 O   0  0  0  0  0  0  0  0  0  0  0  0
   32.6120   40.9540   29.0030 H   0  0  0  0  0  0  0  0  0  0  0  0
   33.6660   41.5110   27.6030 H   0  0  0  0  0  0  0  0  0  0  0  0
   31.7400   40.4310   26.5740 H   0  0  0  0  0  0  0  0  0  0  0  0
   31.7690   39.0630   27.7530 H   0  0  0  0  0  0  0  0  0  0  0  0
   32.6270   38.0710   25.8270 H   0  0  0  0  0  0  0  0  0  0  0  0
   34.1330   37.4610   27.5590 H   0  0  0  0  0  0  0  0  0  0  0  0
   35.2090   37.8890   26.1730 H   0  0  0  0  0  0  0  0  0  0  0  0
   35.9820   38.8500   28.4580 H   0  0  0  0  0  0  0  0  0  0  0  0
   35.6600   40.1510   27.1870 H   0  0  0  0  0  0  0  0  0  0  0  0
   33.7250   34.9970   23.6640 C   0  0  0  0  0  0  0  0  0  0  0  0
   34.1340   33.9540   23.5690 H   0  0  0  0  0  0  0  0  0  0  0  0
   34.1370   35.4890   24.5920 H   0  0  0  0  0  0  0  0  0  0  0  0
   32.1960   34.9860   23.7090 C   0  0  0  0  0  0  0  0  0  0  0  0
   31.8370   36.0570   23.7410 H   0  0  0  0  0  0  0  0  0  0  0  0
   31.7840   34.5680   22.7500 H   0  0  0  0  0  0  0  0  0  0  0  0
   31.5000   34.1050   25.0790 S   0  0  0  0  0  0  0  0  0  0  0  0
   32.5380   33.7100   26.0550 O   0  0  0  0  0  0  0  0  0  0  0  0
   30.7940   32.9010   24.5830 O   0  0  0  0  0  0  0  0  0  0  0  0
   30.3800   35.2340   25.7670 C   0  0  0  0  0  0  0  0  0  0  0  0
   29.6230   35.5990   25.0240 H   0  0  0  0  0  0  0  0  0  0  0  0
   29.7920   34.8130   26.6260 H   0  0  0  0  0  0  0  0  0  0  0  0
   30.8850   36.1480   26.1800 H   0  0  0  0  0  0  0  0  0  0  0  0
  1  3  2  0  0  0  0
  1  7  1  0  0  0  0
  1 21  1  0  0  0  0
  2 12  1  0  0  0  0
  2 17  2  0  0  0  0
  2 18  1  0  0  0  0
  3 13  1  0  0  0  0
  3 14  1  0  0  0  0
  4 16  2  0  0  0  0
  4 19  1  0  0  0  0
  4 20  1  0  0  0  0
  5  6  1  0  0  0  0
  5 10  1  0  0  0  0
  5 11  2  0  0  0  0
  6 12  2  0  0  0  0
  6 22  1  0  0  0  0
  7  8  2  0  0  0  0
  7 27  1  0  0  0  0
  8  9  1  0  0  0  0
  8 23  1  0  0  0  0
  9 13  2  0  0  0  0
  9 24  1  0  0  0  0
 10 18  1  0  0  0  0
 10 19  2  0  0  0  0
 11 16  1  0  0  0  0
 11 25  1  0  0  0  0
 12 15  1  0  0  0  0
 13 15  1  0  0  0  0
 18 43  1  0  0  0  0
 20 26  1  0  0  0  0
 20 30  1  0  0  0  0
 28 29  1  0  0  0  0
 28 33  1  0  0  0  0
 28 34  1  0  0  0  0
 28 35  1  0  0  0  0
 29 30  1  0  0  0  0
 29 36  1  0  0  0  0
 29 37  1  0  0  0  0
 30 31  1  0  0  0  0
 30 38  1  0  0  0  0
 31 32  1  0  0  0  0
 31 39  1  0  0  0  0
 31 40  1  0  0  0  0
 32 33  1  0  0  0  0
 32 41  1  0  0  0  0
 32 42  1  0  0  0  0
 43 44  1  0  0  0  0
 43 45  1  0  0  0  0
 43 46  1  0  0  0  0
 46 47  1  0  0  0  0
 46 48  1  0  0  0  0
 46 49  1  0  0  0  0
 49 50  2  0  0  0  0
 49 51  2  0  0  0  0
 49 52  1  0  0  0  0
 52 53  1  0  0  0  0
 52 54  1  0  0  0  0
 52 55  1  0  0  0  0
M  END
$$$$
