p38a_2o
 OpenBabel02232411163D
Structure written by MMmdl.
 55 58  0  0  0  0  0  0  0  0999 V2000
   36.3250   35.8640   16.0140 C   0  0  0  0  0  0  0  0  0  0  0  0
   34.5090   35.0190   21.6290 C   0  0  0  0  0  0  0  0  0  0  0  0
   35.5800   35.4490   17.1130 C   0  0  0  0  0  0  0  0  0  0  0  0
   34.2220   39.1530   24.1290 C   0  0  0  0  0  0  0  0  0  0  0  0
   34.7260   37.8820   21.7360 C   0  0  0  0  0  0  0  0  0  0  0  0
   35.0530   37.2000   20.5130 C   0  0  0  0  0  0  0  0  0  0  0  0
   37.6130   36.3480   16.2790 C   0  0  0  0  0  0  0  0  0  0  0  0
   38.1740   36.3880   17.5590 C   0  0  0  0  0  0  0  0  0  0  0  0
   37.3950   35.9910   18.6510 C   0  0  0  0  0  0  0  0  0  0  0  0
   34.4440   37.1420   22.9220 C   0  0  0  0  0  0  0  0  0  0  0  0
   34.6940   39.2990   21.8360 C   0  0  0  0  0  0  0  0  0  0  0  0
   34.9810   35.8490   20.4880 C   0  0  0  0  0  0  0  0  0  0  0  0
   36.0930   35.5350   18.4240 C   0  0  0  0  0  0  0  0  0  0  0  0
   34.3620   34.9480   16.9530 F   0  0  0  0  0  0  0  0  0  0  0  0
   35.2620   35.0020   19.4170 O   0  0  0  0  0  0  0  0  0  0  0  0
   34.4440   39.9460   22.9840 N   0  0  0  0  0  0  0  0  0  0  0  0
   34.2490   33.8400   21.5710 O   0  0  0  0  0  0  0  0  0  0  0  0
   34.3720   35.7360   22.8780 N   0  0  0  0  0  0  0  0  0  0  0  0
   34.2220   37.7720   24.1200 N   0  0  0  0  0  0  0  0  0  0  0  0
   33.9190   39.8150   25.2950 N   0  0  0  0  0  0  0  0  0  0  0  0
   35.9210   35.8430   14.9980 H   0  0  0  0  0  0  0  0  0  0  0  0
   35.3610   37.8020   19.6540 H   0  0  0  0  0  0  0  0  0  0  0  0
   39.1940   36.7530   17.7100 H   0  0  0  0  0  0  0  0  0  0  0  0
   37.7950   36.0680   19.6640 H   0  0  0  0  0  0  0  0  0  0  0  0
   34.8780   39.9170   20.9400 H   0  0  0  0  0  0  0  0  0  0  0  0
   33.9800   40.8530   25.3160 H   0  0  0  0  0  0  0  0  0  0  0  0
   38.3230   36.8270   15.2600 F   0  0  0  0  0  0  0  0  0  0  0  0
   32.9040   39.2890   28.9370 C   0  0  0  0  0  0  0  0  0  0  0  0
   32.8310   39.8220   27.5010 C   0  0  0  0  0  0  0  0  0  0  0  0
   33.9160   39.1490   26.6330 C   0  0  0  0  0  0  0  0  0  0  0  0
   35.3050   39.2950   27.2950 C   0  0  0  0  0  0  0  0  0  0  0  0
   35.2510   38.7880   28.7420 C   0  0  0  0  0  0  0  0  0  0  0  0
   34.2240   39.4640   29.5030 O   0  0  0  0  0  0  0  0  0  0  0  0
   32.6350   38.2070   28.9730 H   0  0  0  0  0  0  0  0  0  0  0  0
   32.2680   39.8940   29.6240 H   0  0  0  0  0  0  0  0  0  0  0  0
   32.9830   40.9280   27.5050 H   0  0  0  0  0  0  0  0  0  0  0  0
   31.8240   39.6050   27.0690 H   0  0  0  0  0  0  0  0  0  0  0  0
   33.6750   38.0580   26.5070 H   0  0  0  0  0  0  0  0  0  0  0  0
   36.0510   38.6950   26.7220 H   0  0  0  0  0  0  0  0  0  0  0  0
   35.6200   40.3650   27.2790 H   0  0  0  0  0  0  0  0  0  0  0  0
   35.0600   37.6890   28.7660 H   0  0  0  0  0  0  0  0  0  0  0  0
   36.1790   39.0540   29.2980 H   0  0  0  0  0  0  0  0  0  0  0  0
   34.1530   34.9610   24.1500 C   0  0  0  0  0  0  0  0  0  0  0  0
   34.4100   33.8870   23.9320 H   0  0  0  0  0  0  0  0  0  0  0  0
   34.8780   35.3590   24.9220 H   0  0  0  0  0  0  0  0  0  0  0  0
   32.7230   35.0970   24.6810 C   0  0  0  0  0  0  0  0  0  0  0  0
   32.6650   36.0610   25.2730 H   0  0  0  0  0  0  0  0  0  0  0  0
   32.0020   35.2340   23.8330 H   0  0  0  0  0  0  0  0  0  0  0  0
   32.1840   33.7570   25.6990 S   0  0  0  0  0  0  0  0  0  0  0  0
   31.8830   32.5950   24.8330 O   0  0  0  0  0  0  0  0  0  0  0  0
   30.9730   34.1540   26.4550 O   0  0  0  0  0  0  0  0  0  0  0  0
   33.4860   33.4060   26.7890 C   0  0  0  0  0  0  0  0  0  0  0  0
   33.9820   34.3380   27.1790 H   0  0  0  0  0  0  0  0  0  0  0  0
   33.1440   32.8430   27.6970 H   0  0  0  0  0  0  0  0  0  0  0  0
   34.3030   32.7970   26.3250 H   0  0  0  0  0  0  0  0  0  0  0  0
  1  3  2  0  0  0  0
  1  7  1  0  0  0  0
  1 21  1  0  0  0  0
  2 12  1  0  0  0  0
  2 17  2  0  0  0  0
  2 18  1  0  0  0  0
  3 13  1  0  0  0  0
  3 14  1  0  0  0  0
  4 16  2  0  0  0  0
  4 19  1  0  0  0  0
  4 20  1  0  0  0  0
  5  6  1  0  0  0  0
  5 10  1  0  0  0  0
  5 11  2  0  0  0  0
  6 12  2  0  0  0  0
  6 22  1  0  0  0  0
  7  8  2  0  0  0  0
  7 27  1  0  0  0  0
  8  9  1  0  0  0  0
  8 23  1  0  0  0  0
  9 13  2  0  0  0  0
  9 24  1  0  0  0  0
 10 18  1  0  0  0  0
 10 19  2  0  0  0  0
 11 16  1  0  0  0  0
 11 25  1  0  0  0  0
 12 15  1  0  0  0  0
 13 15  1  0  0  0  0
 18 43  1  0  0  0  0
 20 26  1  0  0  0  0
 20 30  1  0  0  0  0
 28 29  1  0  0  0  0
 28 33  1  0  0  0  0
 28 34  1  0  0  0  0
 28 35  1  0  0  0  0
 29 30  1  0  0  0  0
 29 36  1  0  0  0  0
 29 37  1  0  0  0  0
 30 31  1  0  0  0  0
 30 38  1  0  0  0  0
 31 32  1  0  0  0  0
 31 39  1  0  0  0  0
 31 40  1  0  0  0  0
 32 33  1  0  0  0  0
 32 41  1  0  0  0  0
 32 42  1  0  0  0  0
 43 44  1  0  0  0  0
 43 45  1  0  0  0  0
 43 46  1  0  0  0  0
 46 47  1  0  0  0  0
 46 48  1  0  0  0  0
 46 49  1  0  0  0  0
 49 50  2  0  0  0  0
 49 51  2  0  0  0  0
 49 52  1  0  0  0  0
 52 53  1  0  0  0  0
 52 54  1  0  0  0  0
 52 55  1  0  0  0  0
M  END
$$$$
