p38a_2u
 OpenBabel02232411163D
Structure written by MMmdl.
 64 68  0  0  0  0  0  0  0  0999 V2000
   38.3200   36.5750   17.1160 C   0  0  0  0  0  0  0  0  0  0  0  0
   34.5910   35.0370   21.1730 C   0  0  0  0  0  0  0  0  0  0  0  0
   37.5440   36.1070   18.1730 C   0  0  0  0  0  0  0  0  0  0  0  0
   34.0100   39.0660   23.7890 C   0  0  0  0  0  0  0  0  0  0  0  0
   34.6920   37.8930   21.3950 C   0  0  0  0  0  0  0  0  0  0  0  0
   35.1010   37.2730   20.1650 C   0  0  0  0  0  0  0  0  0  0  0  0
   37.6690   36.7230   15.8840 C   0  0  0  0  0  0  0  0  0  0  0  0
   36.3240   36.4040   15.6780 C   0  0  0  0  0  0  0  0  0  0  0  0
   35.5700   35.9230   16.7530 C   0  0  0  0  0  0  0  0  0  0  0  0
   34.3260   37.0990   22.5260 C   0  0  0  0  0  0  0  0  0  0  0  0
   34.6480   39.3050   21.5490 C   0  0  0  0  0  0  0  0  0  0  0  0
   35.0880   35.9230   20.0890 C   0  0  0  0  0  0  0  0  0  0  0  0
   36.1870   35.7660   17.9970 C   0  0  0  0  0  0  0  0  0  0  0  0
   38.0790   35.9810   19.3810 F   0  0  0  0  0  0  0  0  0  0  0  0
   35.4770   35.1210   19.0190 O   0  0  0  0  0  0  0  0  0  0  0  0
   34.3200   39.9070   22.7020 N   0  0  0  0  0  0  0  0  0  0  0  0
   34.4460   33.8380   21.0680 O   0  0  0  0  0  0  0  0  0  0  0  0
   34.2720   35.6950   22.4180 N   0  0  0  0  0  0  0  0  0  0  0  0
   34.0200   37.6880   23.7270 N   0  0  0  0  0  0  0  0  0  0  0  0
   33.5990   39.6820   24.9550 N   0  0  0  0  0  0  0  0  0  0  0  0
   39.3690   36.8500   17.2520 H   0  0  0  0  0  0  0  0  0  0  0  0
   35.4180   37.9160   19.3410 H   0  0  0  0  0  0  0  0  0  0  0  0
   35.8510   36.5420   14.7040 H   0  0  0  0  0  0  0  0  0  0  0  0
   34.5080   35.6920   16.6160 H   0  0  0  0  0  0  0  0  0  0  0  0
   34.8880   39.9580   20.6940 H   0  0  0  0  0  0  0  0  0  0  0  0
   33.7030   40.7140   25.0380 H   0  0  0  0  0  0  0  0  0  0  0  0
   38.3570   37.2330   14.8660 F   0  0  0  0  0  0  0  0  0  0  0  0
   32.4610   39.0670   28.5430 C   0  0  0  0  0  0  0  0  0  0  0  0
   32.4470   39.6420   27.1220 C   0  0  0  0  0  0  0  0  0  0  0  0
   33.5320   38.9590   26.2610 C   0  0  0  0  0  0  0  0  0  0  0  0
   34.9070   39.0160   26.9670 C   0  0  0  0  0  0  0  0  0  0  0  0
   34.7910   38.4810   28.3980 C   0  0  0  0  0  0  0  0  0  0  0  0
   33.7700   39.1810   29.1470 O   0  0  0  0  0  0  0  0  0  0  0  0
   32.1520   37.9960   28.5440 H   0  0  0  0  0  0  0  0  0  0  0  0
   31.8270   39.6720   29.2300 H   0  0  0  0  0  0  0  0  0  0  0  0
   32.6350   40.7410   27.1650 H   0  0  0  0  0  0  0  0  0  0  0  0
   31.4460   39.4710   26.6590 H   0  0  0  0  0  0  0  0  0  0  0  0
   33.2410   37.8880   26.0800 H   0  0  0  0  0  0  0  0  0  0  0  0
   35.6410   38.3950   26.4010 H   0  0  0  0  0  0  0  0  0  0  0  0
   35.2720   40.0710   26.9880 H   0  0  0  0  0  0  0  0  0  0  0  0
   34.5520   37.3920   28.3980 H   0  0  0  0  0  0  0  0  0  0  0  0
   35.7100   38.6980   28.9880 H   0  0  0  0  0  0  0  0  0  0  0  0
   31.8540   34.0360   24.9320 C   0  0  0  0  0  0  0  0  0  0  0  0
   32.3390   35.1150   23.9410 C   0  0  0  0  0  0  0  0  0  0  0  0
   33.7920   34.8080   23.5430 C   0  0  0  0  0  0  0  0  0  0  0  0
   34.6910   34.8630   24.7900 C   0  0  0  0  0  0  0  0  0  0  0  0
   34.2180   33.7850   25.7940 C   0  0  0  0  0  0  0  0  0  0  0  0
   31.7800   33.0490   24.4060 H   0  0  0  0  0  0  0  0  0  0  0  0
   30.8380   34.3480   25.2960 H   0  0  0  0  0  0  0  0  0  0  0  0
   32.2750   36.1120   24.4460 H   0  0  0  0  0  0  0  0  0  0  0  0
   31.6670   35.1250   23.0560 H   0  0  0  0  0  0  0  0  0  0  0  0
   33.8310   33.7520   23.1350 H   0  0  0  0  0  0  0  0  0  0  0  0
   35.7550   34.6770   24.5270 H   0  0  0  0  0  0  0  0  0  0  0  0
   34.6140   35.8660   25.2820 H   0  0  0  0  0  0  0  0  0  0  0  0
   34.4220   32.7670   25.3710 H   0  0  0  0  0  0  0  0  0  0  0  0
   34.8000   33.9290   26.7450 H   0  0  0  0  0  0  0  0  0  0  0  0
   32.7680   33.9510   26.1090 N   0  0  0  0  0  0  0  0  0  0  0  0
   32.1360   33.3490   27.5820 S   0  0  0  0  0  0  0  0  0  0  0  0
   33.1270   32.4550   28.2130 O   0  0  0  0  0  0  0  0  0  0  0  0
   30.8680   32.6390   27.3160 O   0  0  0  0  0  0  0  0  0  0  0  0
   31.8870   34.7780   28.5200 C   0  0  0  0  0  0  0  0  0  0  0  0
   32.8200   35.3970   28.5960 H   0  0  0  0  0  0  0  0  0  0  0  0
   31.1060   35.4500   28.0690 H   0  0  0  0  0  0  0  0  0  0  0  0
   31.5550   34.5610   29.5670 H   0  0  0  0  0  0  0  0  0  0  0  0
  1  3  2  0  0  0  0
  1  7  1  0  0  0  0
  1 21  1  0  0  0  0
  2 12  1  0  0  0  0
  2 17  2  0  0  0  0
  2 18  1  0  0  0  0
  3 13  1  0  0  0  0
  3 14  1  0  0  0  0
  4 16  2  0  0  0  0
  4 19  1  0  0  0  0
  4 20  1  0  0  0  0
  5  6  1  0  0  0  0
  5 10  1  0  0  0  0
  5 11  2  0  0  0  0
  6 12  2  0  0  0  0
  6 22  1  0  0  0  0
  7  8  2  0  0  0  0
  7 27  1  0  0  0  0
  8  9  1  0  0  0  0
  8 23  1  0  0  0  0
  9 13  2  0  0  0  0
  9 24  1  0  0  0  0
 10 18  1  0  0  0  0
 10 19  2  0  0  0  0
 11 16  1  0  0  0  0
 11 25  1  0  0  0  0
 12 15  1  0  0  0  0
 13 15  1  0  0  0  0
 18 45  1  0  0  0  0
 20 26  1  0  0  0  0
 20 30  1  0  0  0  0
 28 29  1  0  0  0  0
 28 33  1  0  0  0  0
 28 34  1  0  0  0  0
 28 35  1  0  0  0  0
 29 30  1  0  0  0  0
 29 36  1  0  0  0  0
 29 37  1  0  0  0  0
 30 31  1  0  0  0  0
 30 38  1  0  0  0  0
 31 32  1  0  0  0  0
 31 39  1  0  0  0  0
 31 40  1  0  0  0  0
 32 33  1  0  0  0  0
 32 41  1  0  0  0  0
 32 42  1  0  0  0  0
 43 44  1  0  0  0  0
 43 48  1  0  0  0  0
 43 49  1  0  0  0  0
 43 57  1  0  0  0  0
 44 45  1  0  0  0  0
 44 50  1  0  0  0  0
 44 51  1  0  0  0  0
 45 46  1  0  0  0  0
 45 52  1  0  0  0  0
 46 47  1  0  0  0  0
 46 53  1  0  0  0  0
 46 54  1  0  0  0  0
 47 55  1  0  0  0  0
 47 56  1  0  0  0  0
 47 57  1  0  0  0  0
 57 58  1  0  0  0  0
 58 59  2  0  0  0  0
 58 60  2  0  0  0  0
 58 61  1  0  0  0  0
 61 62  1  0  0  0  0
 61 63  1  0  0  0  0
 61 64  1  0  0  0  0
M  END
$$$$
