39
                    3D
 Schrodinger Suite 2022-3.
 48 51  0  0  1  0  0  0  0  0999 V2000
    3.7820  -48.8870    7.3580 O   0  0  0  0  0  0  0  0  0  0  0  0
    3.3790  -49.9250    6.8130 C   0  0  0  0  0  0  0  0  0  0  0  0
    4.0750  -50.8790    6.4180 O   0  5  0  0  0  0  0  0  0  0  0  0
    1.8630  -50.0760    6.5940 C   0  0  0  0  0  0  0  0  0  0  0  0
   -0.1650  -51.1310    6.6870 C   0  0  0  0  0  0  0  0  0  0  0  0
   -1.2340  -52.0160    6.9130 C   0  0  0  0  0  0  0  0  0  0  0  0
   -2.4890  -51.6260    6.4710 C   0  0  0  0  0  0  0  0  0  0  0  0
   -2.6850  -50.3850    5.8190 C   0  0  0  0  0  0  0  0  0  0  0  0
   -1.6330  -49.5100    5.5870 C   0  0  0  0  0  0  0  0  0  0  0  0
   -0.3440  -49.8650    6.0190 C   0  0  0  0  0  0  0  0  0  0  0  0
    0.9520  -49.2230    5.9800 C   0  0  0  0  0  0  0  0  0  0  0  0
    1.2150  -47.8750    5.4110 C   0  0  0  0  0  0  0  0  0  0  0  0
    1.3910  -46.8070    6.5060 C   0  0  0  0  0  0  0  0  0  0  0  0
    0.1310  -46.6200    7.3400 C   0  0  0  0  0  0  0  0  0  0  0  0
   -0.6360  -45.6220    6.5680 O   0  0  0  0  0  0  0  0  0  0  0  0
   -1.9490  -45.4440    6.8660 C   0  0  0  0  0  0  0  0  0  0  0  0
   -2.6010  -44.5170    6.0240 C   0  0  0  0  0  0  0  0  0  0  0  0
   -3.9520  -44.2740    6.1830 C   0  0  0  0  0  0  0  0  0  0  0  0
   -4.6850  -44.9560    7.1720 C   0  0  0  0  0  0  0  0  0  0  0  0
   -4.0170  -45.8440    8.0330 C   0  0  0  0  0  0  0  0  0  0  0  0
   -2.6520  -46.0880    7.8990 C   0  0  0  0  0  0  0  0  0  0  0  0
   -1.0890  -52.9700    7.4190 H   0  0  0  0  0  0  0  0  0  0  0  0
   -3.3490  -52.2780    6.6280 H   0  0  0  0  0  0  0  0  0  0  0  0
   -3.6940  -50.1220    5.4970 H   0  0  0  0  0  0  0  0  0  0  0  0
   -1.8160  -48.5620    5.0810 H   0  0  0  0  0  0  0  0  0  0  0  0
    0.3550  -47.5630    4.7630 H   0  0  0  0  0  0  0  0  0  0  0  0
    2.1400  -47.8910    4.7860 H   0  0  0  0  0  0  0  0  0  0  0  0
    1.6280  -45.8350    6.0110 H   0  0  0  0  0  0  0  0  0  0  0  0
    2.2300  -47.1120    7.1850 H   0  0  0  0  0  0  0  0  0  0  0  0
    0.3160  -46.1490    8.3230 H   0  0  0  0  0  0  0  0  0  0  0  0
   -0.4760  -47.5480    7.4120 H   0  0  0  0  0  0  0  0  0  0  0  0
   -2.0740  -43.9780    5.2590 H   0  0  0  0  0  0  0  0  0  0  0  0
   -2.1790  -46.7860    8.5820 H   0  0  0  0  0  0  0  0  0  0  0  0
    1.1930  -51.2350    7.0310 N   0  0  0  0  0  0  0  0  0  0  0  0
    1.5910  -52.0440    7.4940 H   0  0  0  0  0  0  0  0  0  0  0  0
   -4.5740  -46.3790    8.8080 H   0  0  0  0  0  0  0  0  0  0  0  0
   -4.4330  -43.5390    5.5340 H   0  0  0  0  0  0  0  0  0  0  0  0
   -8.9400  -44.9650    7.1180 C   0  0  0  0  0  0  0  0  0  0  0  0
   -8.2590  -45.1860    8.3170 C   0  0  0  0  0  0  0  0  0  0  0  0
   -6.8700  -45.0930    8.3700 C   0  0  0  0  0  0  0  0  0  0  0  0
   -6.1460  -44.8400    7.1930 C   0  0  0  0  0  0  0  0  0  0  0  0
   -6.8400  -44.5710    5.9970 C   0  0  0  0  0  0  0  0  0  0  0  0
   -8.2310  -44.6090    5.9690 C   0  0  0  0  0  0  0  0  0  0  0  0
  -10.0160  -45.0450    7.0790 H   0  0  0  0  0  0  0  0  0  0  0  0
   -8.8010  -45.4540    9.2150 H   0  0  0  0  0  0  0  0  0  0  0  0
   -6.3620  -45.2360    9.3240 H   0  0  0  0  0  0  0  0  0  0  0  0
   -6.3070  -44.3650    5.0690 H   0  0  0  0  0  0  0  0  0  0  0  0
   -8.7620  -44.3830    5.0470 H   0  0  0  0  0  0  0  0  0  0  0  0
  1  2  2  0  0  0  0
  2  3  1  0  0  0  0
  2  4  1  0  0  0  0
  4 11  2  0  0  0  0
  4 34  1  0  0  0  0
  5  6  1  0  0  0  0
  5 10  2  0  0  0  0
  5 34  1  0  0  0  0
  6  7  2  0  0  0  0
  6 22  1  0  0  0  0
  7  8  1  0  0  0  0
  7 23  1  0  0  0  0
  8  9  2  0  0  0  0
  8 24  1  0  0  0  0
  9 10  1  0  0  0  0
  9 25  1  0  0  0  0
 10 11  1  0  0  0  0
 11 12  1  0  0  0  0
 12 26  1  0  0  0  0
 12 27  1  0  0  0  0
 12 13  1  0  0  0  0
 13 14  1  0  0  0  0
 13 28  1  0  0  0  0
 13 29  1  0  0  0  0
 14 15  1  0  0  0  0
 14 30  1  0  0  0  0
 14 31  1  0  0  0  0
 15 16  1  0  0  0  0
 16 17  1  0  0  0  0
 16 21  2  0  0  0  0
 17 18  2  0  0  0  0
 17 32  1  0  0  0  0
 18 19  1  0  0  0  0
 18 37  1  0  0  0  0
 19 20  2  0  0  0  0
 19 41  1  0  0  0  0
 20 21  1  0  0  0  0
 20 36  1  0  0  0  0
 21 33  1  0  0  0  0
 34 35  1  0  0  0  0
 38 39  2  0  0  0  0
 38 43  1  0  0  0  0
 38 44  1  0  0  0  0
 39 40  1  0  0  0  0
 39 45  1  0  0  0  0
 40 41  2  0  0  0  0
 40 46  1  0  0  0  0
 41 42  1  0  0  0  0
 42 43  2  0  0  0  0
 42 47  1  0  0  0  0
 43 48  1  0  0  0  0
M  CHG  1   3  -1
M  END
$$$$
