31
 OpenBabel02232411153D
Structure written by MMmdl.
 50 53  0  0  0  0  0  0  0  0999 V2000
    2.0620   28.8270    6.8600 C   0  0  0  0  0  0  0  0  0  0  0  0
   -1.4840   31.3900    7.8950 C   0  0  0  0  0  0  0  0  0  0  0  0
    0.0890   25.9690    8.9840 C   0  0  0  0  0  0  0  0  0  0  0  0
   -0.7800   25.2440   10.0200 C   0  0  0  0  0  0  0  0  0  0  0  0
   -0.5910   23.7250    9.8070 C   0  0  0  0  0  0  0  0  0  0  0  0
   -1.3450   22.9160   10.8720 C   0  0  0  0  0  0  0  0  0  0  0  0
   -0.9370   23.3340   12.2940 C   0  0  0  0  0  0  0  0  0  0  0  0
   -1.1380   24.8420   12.5100 C   0  0  0  0  0  0  0  0  0  0  0  0
   -0.3900   25.6650   11.4500 C   0  0  0  0  0  0  0  0  0  0  0  0
    5.1760   25.5540    5.0940 C   0  0  0  0  0  0  0  0  0  0  0  0
    4.9520   24.5940    6.0820 C   0  0  0  0  0  0  0  0  0  0  0  0
    4.3000   24.9480    7.2660 C   0  0  0  0  0  0  0  0  0  0  0  0
    3.7850   26.2370    7.4390 C   0  0  0  0  0  0  0  0  0  0  0  0
    1.3420   27.8710    7.5700 N   0  0  0  0  0  0  0  0  0  0  0  0
    0.1230   28.1900    8.0760 C   0  0  0  0  0  0  0  0  0  0  0  0
   -0.5660   27.2890    8.7940 O   0  0  0  0  0  0  0  0  0  0  0  0
   -0.4200   29.4860    7.8680 C   0  0  0  0  0  0  0  0  0  0  0  0
   -1.5840   30.1250    8.3110 N   0  0  0  0  0  0  0  0  0  0  0  0
   -0.2590   31.6330    7.1780 N   0  0  0  0  0  0  0  0  0  0  0  0
    0.4180   30.4180    7.1310 C   0  0  0  0  0  0  0  0  0  0  0  0
    1.6330   30.1130    6.5710 N   0  0  0  0  0  0  0  0  0  0  0  0
    3.3490   28.4910    6.4400 N   0  0  0  0  0  0  0  0  0  0  0  0
    3.9070   27.1680    6.3950 C   0  0  0  0  0  0  0  0  0  0  0  0
    4.6630   26.8410    5.2490 C   0  0  0  0  0  0  0  0  0  0  0  0
   -2.1980   32.1900    8.0670 H   0  0  0  0  0  0  0  0  0  0  0  0
    1.1260   26.1300    9.3520 H   0  0  0  0  0  0  0  0  0  0  0  0
    0.0720   25.4700    7.9940 H   0  0  0  0  0  0  0  0  0  0  0  0
   -1.8540   25.5030    9.8560 H   0  0  0  0  0  0  0  0  0  0  0  0
   -0.9660   23.4420    8.7990 H   0  0  0  0  0  0  0  0  0  0  0  0
    0.4970   23.4740    9.8660 H   0  0  0  0  0  0  0  0  0  0  0  0
   -2.4370   23.0810   10.7480 H   0  0  0  0  0  0  0  0  0  0  0  0
   -1.1240   21.8320   10.7360 H   0  0  0  0  0  0  0  0  0  0  0  0
   -1.5490   22.7680   13.0330 H   0  0  0  0  0  0  0  0  0  0  0  0
    0.1370   23.0810   12.4520 H   0  0  0  0  0  0  0  0  0  0  0  0
   -2.2260   25.0800   12.4780 H   0  0  0  0  0  0  0  0  0  0  0  0
   -0.7480   25.1200   13.5170 H   0  0  0  0  0  0  0  0  0  0  0  0
    0.7070   25.5150   11.5980 H   0  0  0  0  0  0  0  0  0  0  0  0
   -0.6200   26.7450   11.5940 H   0  0  0  0  0  0  0  0  0  0  0  0
    5.7330   25.3230    4.1790 H   0  0  0  0  0  0  0  0  0  0  0  0
    4.1560   24.2170    8.0700 H   0  0  0  0  0  0  0  0  0  0  0  0
    3.2750   26.4880    8.3720 H   0  0  0  0  0  0  0  0  0  0  0  0
   -0.0030   32.5180    6.7170 H   0  0  0  0  0  0  0  0  0  0  0  0
    3.8110   29.1610    5.7750 H   0  0  0  0  0  0  0  0  0  0  0  0
    4.8410   27.5880    4.4740 H   0  0  0  0  0  0  0  0  0  0  0  0
    5.2430   22.8620    5.7450 S   0  3  1  0  0  0  0  0  0  0  0  0
    6.1970   22.7800    4.5730 O   0  5  0  0  0  0  0  0  0  0  0  0
    6.1810   22.3830    7.2170 C   0  0  0  0  0  0  0  0  0  0  0  0
    5.4270   22.2500    8.0340 H   0  0  0  0  0  0  0  0  0  0  0  0
    6.6690   21.3990    7.0370 H   0  0  0  0  0  0  0  0  0  0  0  0
    6.9380   23.1220    7.5330 H   0  0  0  0  0  0  0  0  0  0  0  0
  1 14  2  0  0  0  0
  1 21  1  0  0  0  0
  1 22  1  0  0  0  0
  2 18  2  0  0  0  0
  2 19  1  0  0  0  0
  2 25  1  0  0  0  0
  3  4  1  0  0  0  0
  3 16  1  0  0  0  0
  3 26  1  0  0  0  0
  3 27  1  0  0  0  0
  4  5  1  0  0  0  0
  4  9  1  0  0  0  0
  4 28  1  0  0  0  0
  5  6  1  0  0  0  0
  5 29  1  0  0  0  0
  5 30  1  0  0  0  0
  6  7  1  0  0  0  0
  6 31  1  0  0  0  0
  6 32  1  0  0  0  0
  7  8  1  0  0  0  0
  7 33  1  0  0  0  0
  7 34  1  0  0  0  0
  8  9  1  0  0  0  0
  8 35  1  0  0  0  0
  8 36  1  0  0  0  0
  9 37  1  0  0  0  0
  9 38  1  0  0  0  0
 10 11  2  0  0  0  0
 10 24  1  0  0  0  0
 10 39  1  0  0  0  0
 11 12  1  0  0  0  0
 11 45  1  0  0  0  0
 12 13  2  0  0  0  0
 12 40  1  0  0  0  0
 13 23  1  0  0  0  0
 13 41  1  0  0  0  0
 14 15  1  0  0  0  0
 15 16  1  0  0  0  0
 15 17  2  0  0  0  0
 17 18  1  0  0  0  0
 17 20  1  0  0  0  0
 19 20  1  0  0  0  0
 19 42  1  0  0  0  0
 20 21  2  0  0  0  0
 22 23  1  0  0  0  0
 22 43  1  0  0  0  0
 23 24  2  0  0  0  0
 24 44  1  0  0  0  0
 45 46  1  1  0  0  0
 45 47  1  0  0  0  0
 47 48  1  0  0  0  0
 47 49  1  0  0  0  0
 47 50  1  0  0  0  0
M  CHG  2  45   1  46  -1
M  END
$$$$
