3b
 OpenBabel04222415263D

 58 60  0  0  1  0  0  0  0  0999 V2000
   18.2080  -13.1110   21.5190 N   0  0  0  0  0  0  0  0  0  0  0  0
   17.9330  -11.7700   20.9170 C   0  0  2  0  0  0  0  0  0  0  0  0
   17.3290  -13.6830   22.4010 C   0  0  0  0  0  0  0  0  0  0  0  0
   16.2970  -13.1040   22.7320 O   0  0  0  0  0  0  0  0  0  0  0  0
   16.5100  -11.7080   20.2960 C   0  0  0  0  0  0  0  0  0  0  0  0
   16.0210  -12.6080   19.6300 O   0  0  0  0  0  0  0  0  0  0  0  0
   19.0160  -11.5780   19.8380 C   0  0  0  0  0  0  0  0  0  0  0  0
   17.6820  -15.0860   22.9740 C   0  0  2  0  0  0  0  0  0  0  0  0
   15.8840  -10.4880   20.4820 N   0  0  0  0  0  0  0  0  0  0  0  0
   20.1040  -12.6370   20.0920 C   0  0  0  0  0  0  0  0  0  0  0  0
   16.4080  -15.9500   22.9450 N   0  3  0  0  0  0  0  0  0  0  0  0
   18.1750  -14.9980   24.4320 C   0  0  0  0  0  0  0  0  0  0  0  0
   14.4860  -10.2090   20.0710 C   0  0  0  0  0  0  0  0  0  0  0  0
   19.4770  -13.7100   21.0030 C   0  0  0  0  0  0  0  0  0  0  0  0
   19.6200  -14.5790   24.5370 C   0  0  0  0  0  0  0  0  0  0  0  0
   13.4700  -10.6940   21.0770 C   0  0  0  0  0  0  0  0  0  0  0  0
   19.9620  -13.3980   25.2050 C   0  0  0  0  0  0  0  0  0  0  0  0
   13.1990   -9.9080   22.2100 C   0  0  0  0  0  0  0  0  0  0  0  0
   21.3020  -13.0150   25.3280 C   0  0  0  0  0  0  0  0  0  0  0  0
   12.2020  -10.2880   23.1140 C   0  0  0  0  0  0  0  0  0  0  0  0
   22.3130  -13.8310   24.8170 C   0  0  0  0  0  0  0  0  0  0  0  0
   11.5080  -11.4940   22.8870 C   0  0  0  0  0  0  0  0  0  0  0  0
   21.9770  -15.0280   24.1710 C   0  0  0  0  0  0  0  0  0  0  0  0
   11.8170  -12.2980   21.7930 C   0  0  0  0  0  0  0  0  0  0  0  0
   20.6390  -15.3980   24.0240 C   0  0  0  0  0  0  0  0  0  0  0  0
   12.7860  -11.8940   20.8680 C   0  0  0  0  0  0  0  0  0  0  0  0
   18.0530  -10.9950   21.7240 H   0  0  0  0  0  0  0  0  0  0  0  0
   18.5940  -11.7090   18.8150 H   0  0  0  0  0  0  0  0  0  0  0  0
   19.4400  -10.5580   19.9350 H   0  0  0  0  0  0  0  0  0  0  0  0
   18.4420  -15.6380   22.3490 H   0  0  0  0  0  0  0  0  0  0  0  0
   16.3060   -9.7900   21.1220 H   0  0  0  0  0  0  0  0  0  0  0  0
   20.4410  -13.1000   19.1340 H   0  0  0  0  0  0  0  0  0  0  0  0
   20.9870  -12.1800   20.5940 H   0  0  0  0  0  0  0  0  0  0  0  0
   16.6330  -16.9170   23.3240 H   0  0  0  0  0  0  0  0  0  0  0  0
   15.6510  -15.4980   23.5530 H   0  0  0  0  0  0  0  0  0  0  0  0
   16.0560  -16.0650   21.9540 H   0  0  0  0  0  0  0  0  0  0  0  0
   17.5160  -14.3000   25.0090 H   0  0  0  0  0  0  0  0  0  0  0  0
   18.0920  -16.0170   24.9080 H   0  0  0  0  0  0  0  0  0  0  0  0
   14.4130   -9.0890   19.9680 H   0  0  0  0  0  0  0  0  0  0  0  0
   14.3050  -10.6710   19.0620 H   0  0  0  0  0  0  0  0  0  0  0  0
   20.1560  -13.9560   21.8580 H   0  0  0  0  0  0  0  0  0  0  0  0
   19.2510  -14.6390   20.4180 H   0  0  0  0  0  0  0  0  0  0  0  0
   19.1840  -12.7840   25.6520 H   0  0  0  0  0  0  0  0  0  0  0  0
   13.7840   -9.0030   22.3710 H   0  0  0  0  0  0  0  0  0  0  0  0
   21.5310  -12.0730   25.8300 H   0  0  0  0  0  0  0  0  0  0  0  0
   23.3640  -13.5500   24.9250 H   0  0  0  0  0  0  0  0  0  0  0  0
   22.7560  -15.6890   23.7790 H   0  0  0  0  0  0  0  0  0  0  0  0
   11.2990  -13.2510   21.6590 H   0  0  0  0  0  0  0  0  0  0  0  0
   20.3840  -16.3330   23.5190 H   0  0  0  0  0  0  0  0  0  0  0  0
   12.9940  -12.5180   19.9970 H   0  0  0  0  0  0  0  0  0  0  0  0
   10.7180  -11.8130   23.5730 H   0  0  0  0  0  0  0  0  0  0  0  0
   11.8460   -9.5020   24.3500 C   0  0  0  0  0  0  0  0  0  0  0  0
   12.1690  -10.1200   25.2250 H   0  0  0  0  0  0  0  0  0  0  0  0
   10.7280   -9.4120   24.3990 H   0  0  0  0  0  0  0  0  0  0  0  0
   12.4640   -8.1110   24.4890 C   0  0  0  0  0  0  0  0  0  0  0  0
   12.6400   -7.6610   23.4990 H   0  0  0  0  0  0  0  0  0  0  0  0
   11.7850   -7.4490   25.0700 H   0  0  0  0  0  0  0  0  0  0  0  0
   13.4380   -8.1670   25.0190 H   0  0  0  0  0  0  0  0  0  0  0  0
  1  2  1  0  0  0  0
  1 14  1  0  0  0  0
  1  3  1  0  0  0  0
  2  5  1  0  0  0  0
  2  7  1  0  0  0  0
  2 27  1  1  0  0  0
  3  8  1  0  0  0  0
  3  4  2  0  0  0  0
  5  6  2  0  0  0  0
  5  9  1  0  0  0  0
  7 10  1  0  0  0  0
  7 28  1  0  0  0  0
  7 29  1  0  0  0  0
  8 11  1  0  0  0  0
  8 12  1  0  0  0  0
  8 30  1  6  0  0  0
  9 13  1  0  0  0  0
  9 31  1  0  0  0  0
 10 14  1  0  0  0  0
 10 32  1  0  0  0  0
 10 33  1  0  0  0  0
 11 34  1  0  0  0  0
 11 35  1  0  0  0  0
 11 36  1  0  0  0  0
 12 15  1  0  0  0  0
 12 37  1  0  0  0  0
 12 38  1  0  0  0  0
 13 16  1  0  0  0  0
 13 39  1  0  0  0  0
 13 40  1  0  0  0  0
 14 41  1  0  0  0  0
 14 42  1  0  0  0  0
 15 17  2  0  0  0  0
 15 25  1  0  0  0  0
 16 18  2  0  0  0  0
 16 26  1  0  0  0  0
 17 19  1  0  0  0  0
 17 43  1  0  0  0  0
 18 20  1  0  0  0  0
 18 44  1  0  0  0  0
 19 21  2  0  0  0  0
 19 45  1  0  0  0  0
 20 22  2  0  0  0  0
 20 52  1  0  0  0  0
 21 23  1  0  0  0  0
 21 46  1  0  0  0  0
 22 24  1  0  0  0  0
 22 51  1  0  0  0  0
 23 25  2  0  0  0  0
 23 47  1  0  0  0  0
 24 26  2  0  0  0  0
 24 48  1  0  0  0  0
 25 49  1  0  0  0  0
 26 50  1  0  0  0  0
 52 53  1  0  0  0  0
 52 54  1  0  0  0  0
 52 55  1  0  0  0  0
 55 56  1  0  0  0  0
 55 57  1  0  0  0  0
 55 58  1  0  0  0  0
M  CHG  1  11   1
M  END
$$$$
