63
 OpenBabel02232411163D
Structure written by MMmdl.
 43 45  0  0  0  0  0  0  0  0999 V2000
    4.1100  -49.6090    6.4180 O   0  0  0  0  0  0  0  0  0  0  0  0
    3.2270  -48.7760    6.6960 C   0  0  0  0  0  0  0  0  0  0  0  0
    3.3760  -47.6620    7.2170 O   0  5  0  0  0  0  0  0  0  0  0  0
    1.7960  -49.2320    6.4090 C   0  0  0  0  0  0  0  0  0  0  0  0
    1.4470  -50.8950    6.8430 S   0  0  0  0  0  0  0  0  0  0  0  0
   -0.2380  -50.7320    6.4460 C   0  0  0  0  0  0  0  0  0  0  0  0
   -1.2280  -51.7000    6.5840 C   0  0  0  0  0  0  0  0  0  0  0  0
   -2.5090  -51.3230    6.2000 C   0  0  0  0  0  0  0  0  0  0  0  0
   -2.8240  -50.0540    5.6960 C   0  0  0  0  0  0  0  0  0  0  0  0
   -1.8150  -49.1010    5.5660 C   0  0  0  0  0  0  0  0  0  0  0  0
   -0.5020  -49.4270    5.9460 C   0  0  0  0  0  0  0  0  0  0  0  0
    0.7000  -48.5850    5.9400 C   0  0  0  0  0  0  0  0  0  0  0  0
    0.6490  -47.1630    5.4780 C   0  0  0  0  0  0  0  0  0  0  0  0
    0.5620  -46.1780    6.6550 C   0  0  0  0  0  0  0  0  0  0  0  0
   -0.7610  -46.2500    7.4100 C   0  0  0  0  0  0  0  0  0  0  0  0
   -1.7350  -45.7110    6.4390 O   0  0  0  0  0  0  0  0  0  0  0  0
   -3.0060  -45.4750    6.8570 C   0  0  0  0  0  0  0  0  0  0  0  0
   -3.5320  -45.8600    8.1010 C   0  0  0  0  0  0  0  0  0  0  0  0
   -4.8630  -45.5440    8.4050 C   0  0  0  0  0  0  0  0  0  0  0  0
   -5.4530  -45.9190    9.7230 C   0  0  0  0  0  0  0  0  0  0  0  0
   -5.6340  -44.8710    7.4450 C   0  0  0  0  0  0  0  0  0  0  0  0
   -7.2930  -44.5530    7.7940 Cl  0  0  0  0  0  0  0  0  0  0  0  0
   -5.1190  -44.4850    6.1910 C   0  0  0  0  0  0  0  0  0  0  0  0
   -5.9880  -43.8220    5.1750 C   0  0  0  0  0  0  0  0  0  0  0  0
   -3.7900  -44.7890    5.9040 C   0  0  0  0  0  0  0  0  0  0  0  0
   -1.0250  -52.7010    6.9730 H   0  0  0  0  0  0  0  0  0  0  0  0
   -3.7820  -52.4950    6.3240 Cl  0  0  0  0  0  0  0  0  0  0  0  0
   -3.8510  -49.8210    5.4090 H   0  0  0  0  0  0  0  0  0  0  0  0
   -2.0710  -48.1120    5.1760 H   0  0  0  0  0  0  0  0  0  0  0  0
   -0.2460  -47.0090    4.8240 H   0  0  0  0  0  0  0  0  0  0  0  0
    1.5640  -46.9160    4.8840 H   0  0  0  0  0  0  0  0  0  0  0  0
    0.6740  -45.1390    6.2650 H   0  0  0  0  0  0  0  0  0  0  0  0
    1.3940  -46.4020    7.3740 H   0  0  0  0  0  0  0  0  0  0  0  0
   -0.7730  -45.5760    8.2940 H   0  0  0  0  0  0  0  0  0  0  0  0
   -1.0840  -47.2860    7.6390 H   0  0  0  0  0  0  0  0  0  0  0  0
   -2.9450  -46.4180    8.8240 H   0  0  0  0  0  0  0  0  0  0  0  0
   -5.9190  -45.0310   10.2140 H   0  0  0  0  0  0  0  0  0  0  0  0
   -6.2530  -46.6850    9.5760 H   0  0  0  0  0  0  0  0  0  0  0  0
   -4.6860  -46.3490   10.4070 H   0  0  0  0  0  0  0  0  0  0  0  0
   -5.3880  -43.4770    4.3010 H   0  0  0  0  0  0  0  0  0  0  0  0
   -6.7570  -44.5530    4.8170 H   0  0  0  0  0  0  0  0  0  0  0  0
   -6.5210  -42.9450    5.6090 H   0  0  0  0  0  0  0  0  0  0  0  0
   -3.3580  -44.5180    4.9460 H   0  0  0  0  0  0  0  0  0  0  0  0
  1  2  2  0  0  0  0
  2  3  1  0  0  0  0
  2  4  1  0  0  0  0
  4  5  1  0  0  0  0
  4 12  2  0  0  0  0
  5  6  1  0  0  0  0
  6  7  2  0  0  0  0
  6 11  1  0  0  0  0
  7  8  1  0  0  0  0
  7 26  1  0  0  0  0
  8  9  2  0  0  0  0
  8 27  1  0  0  0  0
  9 10  1  0  0  0  0
  9 28  1  0  0  0  0
 10 11  2  0  0  0  0
 10 29  1  0  0  0  0
 11 12  1  0  0  0  0
 12 13  1  0  0  0  0
 13 30  1  0  0  0  0
 13 31  1  0  0  0  0
 13 14  1  0  0  0  0
 14 15  1  0  0  0  0
 14 32  1  0  0  0  0
 14 33  1  0  0  0  0
 15 16  1  0  0  0  0
 15 34  1  0  0  0  0
 15 35  1  0  0  0  0
 16 17  1  0  0  0  0
 17 18  2  0  0  0  0
 17 25  1  0  0  0  0
 18 19  1  0  0  0  0
 18 36  1  0  0  0  0
 19 20  1  0  0  0  0
 19 21  2  0  0  0  0
 20 37  1  0  0  0  0
 20 38  1  0  0  0  0
 20 39  1  0  0  0  0
 21 22  1  0  0  0  0
 21 23  1  0  0  0  0
 23 24  1  0  0  0  0
 23 25  2  0  0  0  0
 24 40  1  0  0  0  0
 24 41  1  0  0  0  0
 24 42  1  0  0  0  0
 25 43  1  0  0  0  0
M  CHG  1   3  -1
M  END
$$$$
