CAT-13b
 OpenBabel02232411143D
Structure written by MMmdl.
 42 44  0  0  1  0  0  0  0  0999 V2000
   16.7900   -4.3530   -1.2050 C   0  0  0  0  0  0  0  0  0  0  0  0
   15.2790   -4.1470   -1.3150 C   0  0  0  0  0  0  0  0  0  0  0  0
   14.8880   -2.6970   -0.9740 C   0  0  2  0  0  0  0  0  0  0  0  0
   15.3730   -1.6160   -1.9220 C   0  0  0  0  0  0  0  0  0  0  0  0
   15.9980   -1.9150   -3.1390 C   0  0  0  0  0  0  0  0  0  0  0  0
   16.4090   -0.8770   -3.9830 C   0  0  0  0  0  0  0  0  0  0  0  0
   16.2000    0.4580   -3.6300 C   0  0  0  0  0  0  0  0  0  0  0  0
   15.5690    0.7730   -2.4140 C   0  0  0  0  0  0  0  0  0  0  0  0
   15.3240    2.1720   -1.9980 C   0  0  0  0  0  0  0  0  0  0  0  0
   14.9000    3.1440   -2.9190 C   0  0  0  0  0  0  0  0  0  0  0  0
   14.6000    4.4410   -2.4880 C   0  0  0  0  0  0  0  0  0  0  0  0
   14.7050    4.7850   -1.1370 C   0  0  0  0  0  0  0  0  0  0  0  0
   15.1330    3.8110   -0.2320 C   0  0  0  0  0  0  0  0  0  0  0  0
   15.1900    4.1690    1.4540 Cl  0  0  0  0  0  0  0  0  0  0  0  0
   15.4700    2.5220   -0.6440 C   0  0  0  0  0  0  0  0  0  0  0  0
   15.1480   -0.2740   -1.5790 C   0  0  0  0  0  0  0  0  0  0  0  0
   15.3190   -2.3910    0.4470 N   0  3  0  0  0  0  0  0  0  0  0  0
   14.2270   -2.4500    1.3140 C   0  0  0  0  0  0  0  0  0  0  0  0
   14.3430   -2.5030    2.6730 N   0  0  0  0  0  0  0  0  0  0  0  0
   13.0410   -2.5260    0.5830 N   0  0  0  0  0  0  0  0  0  0  0  0
   11.7140   -2.3340    1.2010 C   0  0  0  0  0  0  0  0  0  0  0  0
   13.3310   -2.6150   -0.8640 C   0  0  0  0  0  0  0  0  0  0  0  0
   12.4660   -2.6180   -1.6800 O   0  0  0  0  0  0  0  0  0  0  0  0
   17.0310   -5.0220   -0.3490 H   0  0  0  0  0  0  0  0  0  0  0  0
   17.1900   -4.8010   -2.1380 H   0  0  0  0  0  0  0  0  0  0  0  0
   17.3290   -3.3890   -1.0370 H   0  0  0  0  0  0  0  0  0  0  0  0
   14.7590   -4.8480   -0.6130 H   0  0  0  0  0  0  0  0  0  0  0  0
   14.9180   -4.3880   -2.3470 H   0  0  0  0  0  0  0  0  0  0  0  0
   16.1720   -2.9470   -3.4450 H   0  0  0  0  0  0  0  0  0  0  0  0
   16.9070   -1.1170   -4.9290 H   0  0  0  0  0  0  0  0  0  0  0  0
   16.5320    1.2500   -4.3090 H   0  0  0  0  0  0  0  0  0  0  0  0
   14.7830    2.8870   -3.9770 H   0  0  0  0  0  0  0  0  0  0  0  0
   14.2580    5.1860   -3.2160 H   0  0  0  0  0  0  0  0  0  0  0  0
   14.4380    5.7880   -0.7990 H   0  0  0  0  0  0  0  0  0  0  0  0
   15.8300    1.7840    0.0740 H   0  0  0  0  0  0  0  0  0  0  0  0
   14.6380   -0.0520   -0.6470 H   0  0  0  0  0  0  0  0  0  0  0  0
   16.2550   -2.7250    0.8030 H   0  0  0  0  0  0  0  0  0  0  0  0
   13.6020   -2.1000    3.2990 H   0  0  0  0  0  0  0  0  0  0  0  0
   11.6770   -2.8370    2.2050 H   0  0  0  0  0  0  0  0  0  0  0  0
   11.5190   -1.2370    1.3250 H   0  0  0  0  0  0  0  0  0  0  0  0
   10.9280   -2.7920    0.5420 H   0  0  0  0  0  0  0  0  0  0  0  0
   15.3100   -2.4240    3.0960 H   0  0  0  0  0  0  0  0  0  0  0  0
  1  2  1  0  0  0  0
  1 24  1  0  0  0  0
  1 25  1  0  0  0  0
  1 26  1  0  0  0  0
  2 27  1  0  0  0  0
  2 28  1  0  0  0  0
  3  2  1  6  0  0  0
  3  4  1  0  0  0  0
  3 17  1  0  0  0  0
  3 22  1  0  0  0  0
  4  5  2  0  0  0  0
  4 16  1  0  0  0  0
  5  6  1  0  0  0  0
  5 29  1  0  0  0  0
  6  7  2  0  0  0  0
  6 30  1  0  0  0  0
  7  8  1  0  0  0  0
  7 31  1  0  0  0  0
  8  9  1  0  0  0  0
  8 16  2  0  0  0  0
  9 10  2  0  0  0  0
  9 15  1  0  0  0  0
 10 11  1  0  0  0  0
 10 32  1  0  0  0  0
 11 12  2  0  0  0  0
 11 33  1  0  0  0  0
 12 13  1  0  0  0  0
 12 34  1  0  0  0  0
 13 14  1  0  0  0  0
 13 15  2  0  0  0  0
 15 35  1  0  0  0  0
 16 36  1  0  0  0  0
 17 18  2  0  0  0  0
 17 37  1  0  0  0  0
 18 19  1  0  0  0  0
 18 20  1  0  0  0  0
 19 38  1  0  0  0  0
 19 42  1  0  0  0  0
 20 21  1  0  0  0  0
 20 22  1  0  0  0  0
 21 39  1  0  0  0  0
 21 40  1  0  0  0  0
 21 41  1  0  0  0  0
 22 23  2  0  0  0  0
M  CHG  1  17   1
M  END
$$$$
