p38a_2ff
 OpenBabel02232411163D
Structure written by MMmdl.
 49 52  0  0  1  0  0  0  0  0999 V2000
   36.3450   36.0020   15.8560 C   0  0  0  0  0  0  0  0  0  0  0  0
   34.5420   35.0740   21.4320 C   0  0  0  0  0  0  0  0  0  0  0  0
   35.6640   35.5450   16.9810 C   0  0  0  0  0  0  0  0  0  0  0  0
   34.1610   39.2250   23.8900 C   0  0  0  0  0  0  0  0  0  0  0  0
   34.7640   37.9390   21.5210 C   0  0  0  0  0  0  0  0  0  0  0  0
   35.1760   37.2390   20.3350 C   0  0  0  0  0  0  0  0  0  0  0  0
   37.6370   36.4980   16.0680 C   0  0  0  0  0  0  0  0  0  0  0  0
   38.2620   36.5130   17.3180 C   0  0  0  0  0  0  0  0  0  0  0  0
   37.5430   36.0820   18.4390 C   0  0  0  0  0  0  0  0  0  0  0  0
   34.3680   37.2140   22.6840 C   0  0  0  0  0  0  0  0  0  0  0  0
   34.7440   39.3570   21.6150 C   0  0  0  0  0  0  0  0  0  0  0  0
   35.1050   35.8880   20.3210 C   0  0  0  0  0  0  0  0  0  0  0  0
   36.2420   35.6000   18.2660 C   0  0  0  0  0  0  0  0  0  0  0  0
   33.8550   35.0780   23.8640 C   0  0  0  0  0  0  0  0  0  0  0  0
   34.4470   35.0300   16.8680 F   0  0  0  0  0  0  0  0  0  0  0  0
   35.4820   35.0260   19.2930 O   0  0  0  0  0  0  0  0  0  0  0  0
   34.4490   40.0080   22.7480 N   0  0  0  0  0  0  0  0  0  0  0  0
   34.3080   33.8860   21.3820 O   0  0  0  0  0  0  0  0  0  0  0  0
   34.2620   35.8140   22.6340 N   0  0  0  0  0  0  0  0  0  0  0  0
   34.0680   37.8480   23.8650 N   0  0  0  0  0  0  0  0  0  0  0  0
   34.0110   39.9200   25.0650 N   0  0  0  0  0  0  0  0  0  0  0  0
   35.8870   35.9990   14.8640 H   0  0  0  0  0  0  0  0  0  0  0  0
   35.5490   37.8280   19.4940 H   0  0  0  0  0  0  0  0  0  0  0  0
   39.2840   36.8860   17.4280 H   0  0  0  0  0  0  0  0  0  0  0  0
   37.9960   36.1470   19.4310 H   0  0  0  0  0  0  0  0  0  0  0  0
   34.9690   39.9690   20.7260 H   0  0  0  0  0  0  0  0  0  0  0  0
   34.6080   35.2570   24.6790 H   0  0  0  0  0  0  0  0  0  0  0  0
   32.8550   35.4460   24.2190 H   0  0  0  0  0  0  0  0  0  0  0  0
   33.7920   33.9780   23.6560 H   0  0  0  0  0  0  0  0  0  0  0  0
   33.9710   40.9580   25.0260 H   0  0  0  0  0  0  0  0  0  0  0  0
   38.2870   37.0120   15.0260 F   0  0  0  0  0  0  0  0  0  0  0  0
   34.0760   37.8330   28.3100 C   0  0  0  0  0  0  0  0  0  0  0  0
   34.5330   38.3080   26.9230 C   0  0  0  0  0  0  0  0  0  0  0  0
   33.5550   39.3700   26.3790 C   0  0  2  0  0  0  0  0  0  0  0  0
   32.1060   38.8380   26.3120 C   0  0  0  0  0  0  0  0  0  0  0  0
   31.6580   38.3700   27.7040 C   0  0  0  0  0  0  0  0  0  0  0  0
   32.6310   37.3030   28.2440 C   0  0  2  0  0  0  0  0  0  0  0  0
   34.1470   38.6760   29.0360 H   0  0  0  0  0  0  0  0  0  0  0  0
   34.7550   37.0180   28.6560 H   0  0  0  0  0  0  0  0  0  0  0  0
   34.5780   37.4310   26.2330 H   0  0  0  0  0  0  0  0  0  0  0  0
   35.5540   38.7500   27.0000 H   0  0  0  0  0  0  0  0  0  0  0  0
   33.5770   40.2630   27.0730 H   0  0  0  0  0  0  0  0  0  0  0  0
   31.4290   39.6490   25.9570 H   0  0  0  0  0  0  0  0  0  0  0  0
   32.0450   37.9830   25.5980 H   0  0  0  0  0  0  0  0  0  0  0  0
   31.6260   39.2410   28.3980 H   0  0  0  0  0  0  0  0  0  0  0  0
   30.6310   37.9410   27.6370 H   0  0  0  0  0  0  0  0  0  0  0  0
   32.5740   36.3650   27.6420 H   0  0  0  0  0  0  0  0  0  0  0  0
   32.2060   36.8550   29.5460 O   0  0  0  0  0  0  0  0  0  0  0  0
   32.2310   37.6080   30.1870 H   0  0  0  0  0  0  0  0  0  0  0  0
  1  3  2  0  0  0  0
  1  7  1  0  0  0  0
  1 22  1  0  0  0  0
  2 12  1  0  0  0  0
  2 18  2  0  0  0  0
  2 19  1  0  0  0  0
  3 13  1  0  0  0  0
  3 15  1  0  0  0  0
  4 17  2  0  0  0  0
  4 20  1  0  0  0  0
  4 21  1  0  0  0  0
  5  6  1  0  0  0  0
  5 10  1  0  0  0  0
  5 11  2  0  0  0  0
  6 12  2  0  0  0  0
  6 23  1  0  0  0  0
  7  8  2  0  0  0  0
  7 31  1  0  0  0  0
  8  9  1  0  0  0  0
  8 24  1  0  0  0  0
  9 13  2  0  0  0  0
  9 25  1  0  0  0  0
 10 19  1  0  0  0  0
 10 20  2  0  0  0  0
 11 17  1  0  0  0  0
 11 26  1  0  0  0  0
 12 16  1  0  0  0  0
 13 16  1  0  0  0  0
 14 19  1  0  0  0  0
 14 27  1  0  0  0  0
 14 28  1  0  0  0  0
 14 29  1  0  0  0  0
 21 30  1  0  0  0  0
 21 34  1  0  0  0  0
 32 33  1  0  0  0  0
 32 37  1  0  0  0  0
 32 38  1  0  0  0  0
 32 39  1  0  0  0  0
 33 34  1  0  0  0  0
 33 40  1  0  0  0  0
 33 41  1  0  0  0  0
 34 35  1  0  0  0  0
 34 42  1  6  0  0  0
 35 36  1  0  0  0  0
 35 43  1  0  0  0  0
 35 44  1  0  0  0  0
 36 37  1  0  0  0  0
 36 45  1  0  0  0  0
 36 46  1  0  0  0  0
 37 47  1  1  0  0  0
 37 48  1  0  0  0  0
 48 49  1  0  0  0  0
M  END
$$$$
