p38a_2u
 OpenBabel02232411163D
Structure written by MMmdl.
 64 68  0  0  0  0  0  0  0  0999 V2000
   38.2440   36.5160   17.1870 C   0  0  0  0  0  0  0  0  0  0  0  0
   34.5610   35.1270   21.2670 C   0  0  0  0  0  0  0  0  0  0  0  0
   37.4380   36.0750   18.2330 C   0  0  0  0  0  0  0  0  0  0  0  0
   34.0310   39.2200   23.7950 C   0  0  0  0  0  0  0  0  0  0  0  0
   34.6060   38.0080   21.3840 C   0  0  0  0  0  0  0  0  0  0  0  0
   34.9640   37.3490   20.1580 C   0  0  0  0  0  0  0  0  0  0  0  0
   37.6140   36.6950   15.9480 C   0  0  0  0  0  0  0  0  0  0  0  0
   36.2600   36.4300   15.7260 C   0  0  0  0  0  0  0  0  0  0  0  0
   35.4740   35.9770   16.7910 C   0  0  0  0  0  0  0  0  0  0  0  0
   34.3060   37.2370   22.5450 C   0  0  0  0  0  0  0  0  0  0  0  0
   34.5580   39.4230   21.5200 C   0  0  0  0  0  0  0  0  0  0  0  0
   34.9730   35.9970   20.1290 C   0  0  0  0  0  0  0  0  0  0  0  0
   36.0690   35.7920   18.0410 C   0  0  0  0  0  0  0  0  0  0  0  0
   37.9540   35.9170   19.4450 F   0  0  0  0  0  0  0  0  0  0  0  0
   35.3200   35.1790   19.0560 O   0  0  0  0  0  0  0  0  0  0  0  0
   34.2870   40.0420   22.6790 N   0  0  0  0  0  0  0  0  0  0  0  0
   34.4630   33.9210   21.2040 O   0  0  0  0  0  0  0  0  0  0  0  0
   34.2770   35.8290   22.4920 N   0  0  0  0  0  0  0  0  0  0  0  0
   34.0380   37.8410   23.7470 N   0  0  0  0  0  0  0  0  0  0  0  0
   33.6890   39.8340   24.9800 N   0  0  0  0  0  0  0  0  0  0  0  0
   39.3030   36.7490   17.3340 H   0  0  0  0  0  0  0  0  0  0  0  0
   35.2290   37.9660   19.2970 H   0  0  0  0  0  0  0  0  0  0  0  0
   35.8040   36.5880   14.7460 H   0  0  0  0  0  0  0  0  0  0  0  0
   34.4060   35.7860   16.6400 H   0  0  0  0  0  0  0  0  0  0  0  0
   34.7490   40.0630   20.6430 H   0  0  0  0  0  0  0  0  0  0  0  0
   33.7860   40.8640   25.0700 H   0  0  0  0  0  0  0  0  0  0  0  0
   38.3350   37.1800   14.9410 F   0  0  0  0  0  0  0  0  0  0  0  0
   32.5260   39.0770   28.5360 C   0  0  0  0  0  0  0  0  0  0  0  0
   32.5070   39.7050   27.1370 C   0  0  0  0  0  0  0  0  0  0  0  0
   33.6360   39.0930   26.2770 C   0  0  0  0  0  0  0  0  0  0  0  0
   34.9950   39.2010   27.0050 C   0  0  0  0  0  0  0  0  0  0  0  0
   34.8810   38.6150   28.4180 C   0  0  0  0  0  0  0  0  0  0  0  0
   33.8160   39.2430   29.1690 O   0  0  0  0  0  0  0  0  0  0  0  0
   32.2830   37.9890   28.4880 H   0  0  0  0  0  0  0  0  0  0  0  0
   31.8450   39.6180   29.2320 H   0  0  0  0  0  0  0  0  0  0  0  0
   32.6490   40.8080   27.2190 H   0  0  0  0  0  0  0  0  0  0  0  0
   31.5220   39.5070   26.6520 H   0  0  0  0  0  0  0  0  0  0  0  0
   33.4010   38.0100   26.0820 H   0  0  0  0  0  0  0  0  0  0  0  0
   35.7690   38.6320   26.4360 H   0  0  0  0  0  0  0  0  0  0  0  0
   35.3070   40.2710   27.0630 H   0  0  0  0  0  0  0  0  0  0  0  0
   34.6960   37.5150   28.3760 H   0  0  0  0  0  0  0  0  0  0  0  0
   35.7800   38.8540   29.0300 H   0  0  0  0  0  0  0  0  0  0  0  0
   34.7440   33.3750   25.4400 C   0  0  0  0  0  0  0  0  0  0  0  0
   35.0690   34.0840   24.1090 C   0  0  0  0  0  0  0  0  0  0  0  0
   33.9320   35.0590   23.7490 C   0  0  0  0  0  0  0  0  0  0  0  0
   32.5710   34.3480   23.6020 C   0  0  0  0  0  0  0  0  0  0  0  0
   32.5770   32.9520   24.2620 C   0  0  0  0  0  0  0  0  0  0  0  0
   34.9790   34.0820   26.2800 H   0  0  0  0  0  0  0  0  0  0  0  0
   35.4010   32.4700   25.5240 H   0  0  0  0  0  0  0  0  0  0  0  0
   35.1990   33.3290   23.2990 H   0  0  0  0  0  0  0  0  0  0  0  0
   36.0180   34.6560   24.2370 H   0  0  0  0  0  0  0  0  0  0  0  0
   33.8490   35.7990   24.6000 H   0  0  0  0  0  0  0  0  0  0  0  0
   31.7870   34.9910   24.0730 H   0  0  0  0  0  0  0  0  0  0  0  0
   32.2910   34.2200   22.5300 H   0  0  0  0  0  0  0  0  0  0  0  0
   31.5170   32.6270   24.4360 H   0  0  0  0  0  0  0  0  0  0  0  0
   33.0650   32.2200   23.5660 H   0  0  0  0  0  0  0  0  0  0  0  0
   33.3330   32.8930   25.5390 N   0  0  0  0  0  0  0  0  0  0  0  0
   32.4710   33.1310   27.0100 S   0  0  0  0  0  0  0  0  0  0  0  0
   33.0720   32.2350   28.0150 O   0  0  0  0  0  0  0  0  0  0  0  0
   31.0620   32.7840   26.7440 O   0  0  0  0  0  0  0  0  0  0  0  0
   32.6390   34.7920   27.4760 C   0  0  0  0  0  0  0  0  0  0  0  0
   33.6600   35.0460   27.8690 H   0  0  0  0  0  0  0  0  0  0  0  0
   32.4220   35.5060   26.6400 H   0  0  0  0  0  0  0  0  0  0  0  0
   31.9240   35.0680   28.2990 H   0  0  0  0  0  0  0  0  0  0  0  0
  1  3  2  0  0  0  0
  1  7  1  0  0  0  0
  1 21  1  0  0  0  0
  2 12  1  0  0  0  0
  2 17  2  0  0  0  0
  2 18  1  0  0  0  0
  3 13  1  0  0  0  0
  3 14  1  0  0  0  0
  4 16  2  0  0  0  0
  4 19  1  0  0  0  0
  4 20  1  0  0  0  0
  5  6  1  0  0  0  0
  5 10  1  0  0  0  0
  5 11  2  0  0  0  0
  6 12  2  0  0  0  0
  6 22  1  0  0  0  0
  7  8  2  0  0  0  0
  7 27  1  0  0  0  0
  8  9  1  0  0  0  0
  8 23  1  0  0  0  0
  9 13  2  0  0  0  0
  9 24  1  0  0  0  0
 10 18  1  0  0  0  0
 10 19  2  0  0  0  0
 11 16  1  0  0  0  0
 11 25  1  0  0  0  0
 12 15  1  0  0  0  0
 13 15  1  0  0  0  0
 18 45  1  0  0  0  0
 20 26  1  0  0  0  0
 20 30  1  0  0  0  0
 28 29  1  0  0  0  0
 28 33  1  0  0  0  0
 28 34  1  0  0  0  0
 28 35  1  0  0  0  0
 29 30  1  0  0  0  0
 29 36  1  0  0  0  0
 29 37  1  0  0  0  0
 30 31  1  0  0  0  0
 30 38  1  0  0  0  0
 31 32  1  0  0  0  0
 31 39  1  0  0  0  0
 31 40  1  0  0  0  0
 32 33  1  0  0  0  0
 32 41  1  0  0  0  0
 32 42  1  0  0  0  0
 43 44  1  0  0  0  0
 43 48  1  0  0  0  0
 43 49  1  0  0  0  0
 43 57  1  0  0  0  0
 44 45  1  0  0  0  0
 44 50  1  0  0  0  0
 44 51  1  0  0  0  0
 45 46  1  0  0  0  0
 45 52  1  0  0  0  0
 46 47  1  0  0  0  0
 46 53  1  0  0  0  0
 46 54  1  0  0  0  0
 47 55  1  0  0  0  0
 47 56  1  0  0  0  0
 47 57  1  0  0  0  0
 57 58  1  0  0  0  0
 58 59  2  0  0  0  0
 58 60  2  0  0  0  0
 58 61  1  0  0  0  0
 61 62  1  0  0  0  0
 61 63  1  0  0  0  0
 61 64  1  0  0  0  0
M  END
$$$$
