p38a_2p
 OpenBabel02232411163D
Structure written by MMmdl.
 58 61  0  0  0  0  0  0  0  0999 V2000
   38.2500   36.5200   17.1660 C   0  0  0  0  0  0  0  0  0  0  0  0
   34.7480   35.1180   21.3090 C   0  0  0  0  0  0  0  0  0  0  0  0
   37.4470   36.0770   18.2130 C   0  0  0  0  0  0  0  0  0  0  0  0
   34.2560   39.1910   23.8590 C   0  0  0  0  0  0  0  0  0  0  0  0
   34.7470   37.9930   21.4250 C   0  0  0  0  0  0  0  0  0  0  0  0
   35.0160   37.3400   20.1730 C   0  0  0  0  0  0  0  0  0  0  0  0
   37.6190   36.6870   15.9250 C   0  0  0  0  0  0  0  0  0  0  0  0
   36.2690   36.4050   15.7030 C   0  0  0  0  0  0  0  0  0  0  0  0
   35.4860   35.9510   16.7700 C   0  0  0  0  0  0  0  0  0  0  0  0
   34.6220   37.2230   22.6200 C   0  0  0  0  0  0  0  0  0  0  0  0
   34.6190   39.4030   21.5520 C   0  0  0  0  0  0  0  0  0  0  0  0
   35.0490   35.9880   20.1400 C   0  0  0  0  0  0  0  0  0  0  0  0
   36.0800   35.7810   18.0230 C   0  0  0  0  0  0  0  0  0  0  0  0
   37.9670   35.9300   19.4250 F   0  0  0  0  0  0  0  0  0  0  0  0
   35.3230   35.1790   19.0380 O   0  0  0  0  0  0  0  0  0  0  0  0
   34.3840   40.0150   22.7220 N   0  0  0  0  0  0  0  0  0  0  0  0
   34.5590   33.9240   21.2720 O   0  0  0  0  0  0  0  0  0  0  0  0
   34.7090   35.8200   22.5700 N   0  0  0  0  0  0  0  0  0  0  0  0
   34.4010   37.8180   23.8360 N   0  0  0  0  0  0  0  0  0  0  0  0
   33.8960   39.8010   25.0380 N   0  0  0  0  0  0  0  0  0  0  0  0
   39.3060   36.7640   17.3130 H   0  0  0  0  0  0  0  0  0  0  0  0
   35.1970   37.9610   19.2930 H   0  0  0  0  0  0  0  0  0  0  0  0
   35.8130   36.5510   14.7220 H   0  0  0  0  0  0  0  0  0  0  0  0
   34.4200   35.7490   16.6190 H   0  0  0  0  0  0  0  0  0  0  0  0
   34.7090   40.0460   20.6590 H   0  0  0  0  0  0  0  0  0  0  0  0
   33.8960   40.8380   25.1020 H   0  0  0  0  0  0  0  0  0  0  0  0
   38.3350   37.1770   14.9170 F   0  0  0  0  0  0  0  0  0  0  0  0
   32.7340   39.1070   28.6080 C   0  0  0  0  0  0  0  0  0  0  0  0
   32.6960   39.6600   27.1780 C   0  0  0  0  0  0  0  0  0  0  0  0
   33.8660   39.0850   26.3490 C   0  0  0  0  0  0  0  0  0  0  0  0
   35.2090   39.2840   27.0870 C   0  0  0  0  0  0  0  0  0  0  0  0
   35.1110   38.7440   28.5190 C   0  0  0  0  0  0  0  0  0  0  0  0
   34.0120   39.3470   29.2400 O   0  0  0  0  0  0  0  0  0  0  0  0
   32.5260   38.0120   28.6160 H   0  0  0  0  0  0  0  0  0  0  0  0
   32.0300   39.6600   29.2710 H   0  0  0  0  0  0  0  0  0  0  0  0
   32.7630   40.7730   27.2090 H   0  0  0  0  0  0  0  0  0  0  0  0
   31.7270   39.3770   26.6980 H   0  0  0  0  0  0  0  0  0  0  0  0
   33.6910   37.9870   26.1730 H   0  0  0  0  0  0  0  0  0  0  0  0
   36.0140   38.7370   26.5430 H   0  0  0  0  0  0  0  0  0  0  0  0
   35.4650   40.3710   27.1100 H   0  0  0  0  0  0  0  0  0  0  0  0
   34.9760   37.6370   28.5150 H   0  0  0  0  0  0  0  0  0  0  0  0
   35.9930   39.0500   29.1280 H   0  0  0  0  0  0  0  0  0  0  0  0
   34.7390   35.0320   23.8440 C   0  0  0  0  0  0  0  0  0  0  0  0
   35.2260   34.0420   23.6360 H   0  0  0  0  0  0  0  0  0  0  0  0
   35.3600   35.5930   24.5980 H   0  0  0  0  0  0  0  0  0  0  0  0
   33.3270   34.8080   24.4250 C   0  0  0  0  0  0  0  0  0  0  0  0
   32.8780   35.8090   24.6560 H   0  0  0  0  0  0  0  0  0  0  0  0
   32.6880   34.2870   23.6720 H   0  0  0  0  0  0  0  0  0  0  0  0
   33.4340   33.9800   25.7090 C   0  0  0  0  0  0  0  0  0  0  0  0
   34.1360   34.5070   26.4190 H   0  0  0  0  0  0  0  0  0  0  0  0
   33.9250   32.9960   25.4780 H   0  0  0  0  0  0  0  0  0  0  0  0
   31.8870   33.7110   26.5000 S   0  0  0  0  0  0  0  0  0  0  0  0
   32.0820   32.9120   27.7410 O   0  0  0  0  0  0  0  0  0  0  0  0
   30.9590   32.9970   25.5870 O   0  0  0  0  0  0  0  0  0  0  0  0
   31.2730   35.2890   26.8860 C   0  0  0  0  0  0  0  0  0  0  0  0
   30.9250   35.8550   25.9840 H   0  0  0  0  0  0  0  0  0  0  0  0
   30.3940   35.2590   27.5830 H   0  0  0  0  0  0  0  0  0  0  0  0
   32.0480   35.9270   27.3830 H   0  0  0  0  0  0  0  0  0  0  0  0
  1  3  2  0  0  0  0
  1  7  1  0  0  0  0
  1 21  1  0  0  0  0
  2 12  1  0  0  0  0
  2 17  2  0  0  0  0
  2 18  1  0  0  0  0
  3 13  1  0  0  0  0
  3 14  1  0  0  0  0
  4 16  2  0  0  0  0
  4 19  1  0  0  0  0
  4 20  1  0  0  0  0
  5  6  1  0  0  0  0
  5 10  1  0  0  0  0
  5 11  2  0  0  0  0
  6 12  2  0  0  0  0
  6 22  1  0  0  0  0
  7  8  2  0  0  0  0
  7 27  1  0  0  0  0
  8  9  1  0  0  0  0
  8 23  1  0  0  0  0
  9 13  2  0  0  0  0
  9 24  1  0  0  0  0
 10 18  1  0  0  0  0
 10 19  2  0  0  0  0
 11 16  1  0  0  0  0
 11 25  1  0  0  0  0
 12 15  1  0  0  0  0
 13 15  1  0  0  0  0
 18 43  1  0  0  0  0
 20 26  1  0  0  0  0
 20 30  1  0  0  0  0
 28 29  1  0  0  0  0
 28 33  1  0  0  0  0
 28 34  1  0  0  0  0
 28 35  1  0  0  0  0
 29 30  1  0  0  0  0
 29 36  1  0  0  0  0
 29 37  1  0  0  0  0
 30 31  1  0  0  0  0
 30 38  1  0  0  0  0
 31 32  1  0  0  0  0
 31 39  1  0  0  0  0
 31 40  1  0  0  0  0
 32 33  1  0  0  0  0
 32 41  1  0  0  0  0
 32 42  1  0  0  0  0
 43 44  1  0  0  0  0
 43 45  1  0  0  0  0
 43 46  1  0  0  0  0
 46 47  1  0  0  0  0
 46 48  1  0  0  0  0
 46 49  1  0  0  0  0
 49 50  1  0  0  0  0
 49 51  1  0  0  0  0
 49 52  1  0  0  0  0
 52 53  2  0  0  0  0
 52 54  2  0  0  0  0
 52 55  1  0  0  0  0
 55 56  1  0  0  0  0
 55 57  1  0  0  0  0
 55 58  1  0  0  0  0
M  END
$$$$
