CAT-13b
 OpenBabel02232411143D
Structure written by MMmdl.
 42 44  0  0  1  0  0  0  0  0999 V2000
   16.7800   -4.3930   -1.1930 C   0  0  0  0  0  0  0  0  0  0  0  0
   15.2640   -4.2000   -1.1700 C   0  0  0  0  0  0  0  0  0  0  0  0
   14.8730   -2.7270   -0.9360 C   0  0  2  0  0  0  0  0  0  0  0  0
   15.3490   -1.7080   -1.9530 C   0  0  0  0  0  0  0  0  0  0  0  0
   15.8060   -2.0980   -3.2180 C   0  0  0  0  0  0  0  0  0  0  0  0
   16.2100   -1.1250   -4.1390 C   0  0  0  0  0  0  0  0  0  0  0  0
   16.1290    0.2320   -3.8260 C   0  0  0  0  0  0  0  0  0  0  0  0
   15.6350    0.6380   -2.5740 C   0  0  0  0  0  0  0  0  0  0  0  0
   15.4550    2.0710   -2.2480 C   0  0  0  0  0  0  0  0  0  0  0  0
   15.7150    2.5480   -0.9530 C   0  0  0  0  0  0  0  0  0  0  0  0
   15.4360    3.8750   -0.6140 C   0  0  0  0  0  0  0  0  0  0  0  0
   14.9160    4.7530   -1.5690 C   0  0  0  0  0  0  0  0  0  0  0  0
   14.7180    4.2820   -2.8710 C   0  0  0  0  0  0  0  0  0  0  0  0
   14.1320    5.3660   -4.0690 Cl  0  0  0  0  0  0  0  0  0  0  0  0
   14.9680    2.9560   -3.2260 C   0  0  0  0  0  0  0  0  0  0  0  0
   15.2650   -0.3420   -1.6400 C   0  0  0  0  0  0  0  0  0  0  0  0
   15.2920   -2.3340    0.4680 N   0  3  0  0  0  0  0  0  0  0  0  0
   14.1910   -2.3930    1.3320 C   0  0  0  0  0  0  0  0  0  0  0  0
   14.3140   -2.4190    2.6870 N   0  0  0  0  0  0  0  0  0  0  0  0
   13.0130   -2.4860    0.5970 N   0  0  0  0  0  0  0  0  0  0  0  0
   11.6650   -2.4100    1.1990 C   0  0  0  0  0  0  0  0  0  0  0  0
   13.3140   -2.6400   -0.8440 C   0  0  0  0  0  0  0  0  0  0  0  0
   12.4540   -2.6680   -1.6650 O   0  0  0  0  0  0  0  0  0  0  0  0
   17.3170   -3.4990   -0.7970 H   0  0  0  0  0  0  0  0  0  0  0  0
   17.0650   -5.2640   -0.5610 H   0  0  0  0  0  0  0  0  0  0  0  0
   17.1390   -4.5700   -2.2300 H   0  0  0  0  0  0  0  0  0  0  0  0
   14.8260   -4.8220   -0.3460 H   0  0  0  0  0  0  0  0  0  0  0  0
   14.8080   -4.5560   -2.1280 H   0  0  0  0  0  0  0  0  0  0  0  0
   15.8520   -3.1510   -3.5000 H   0  0  0  0  0  0  0  0  0  0  0  0
   16.5960   -1.4310   -5.1160 H   0  0  0  0  0  0  0  0  0  0  0  0
   16.4560    0.9710   -4.5660 H   0  0  0  0  0  0  0  0  0  0  0  0
   16.1200    1.8750   -0.1960 H   0  0  0  0  0  0  0  0  0  0  0  0
   15.6130    4.2150    0.4110 H   0  0  0  0  0  0  0  0  0  0  0  0
   14.6550    5.7770   -1.2930 H   0  0  0  0  0  0  0  0  0  0  0  0
   14.7730    2.6070   -4.2450 H   0  0  0  0  0  0  0  0  0  0  0  0
   14.9090   -0.0490   -0.6540 H   0  0  0  0  0  0  0  0  0  0  0  0
   16.2210   -2.6720    0.8430 H   0  0  0  0  0  0  0  0  0  0  0  0
   13.5660   -2.0550    3.3260 H   0  0  0  0  0  0  0  0  0  0  0  0
   11.6870   -2.7770    2.2610 H   0  0  0  0  0  0  0  0  0  0  0  0
   11.3020   -1.3480    1.1780 H   0  0  0  0  0  0  0  0  0  0  0  0
   10.9630   -3.0640    0.6140 H   0  0  0  0  0  0  0  0  0  0  0  0
   15.2810   -2.3390    3.1120 H   0  0  0  0  0  0  0  0  0  0  0  0
  1  2  1  0  0  0  0
  1 24  1  0  0  0  0
  1 25  1  0  0  0  0
  1 26  1  0  0  0  0
  2 27  1  0  0  0  0
  2 28  1  0  0  0  0
  3  2  1  6  0  0  0
  3  4  1  0  0  0  0
  3 17  1  0  0  0  0
  3 22  1  0  0  0  0
  4  5  2  0  0  0  0
  4 16  1  0  0  0  0
  5  6  1  0  0  0  0
  5 29  1  0  0  0  0
  6  7  2  0  0  0  0
  6 30  1  0  0  0  0
  7  8  1  0  0  0  0
  7 31  1  0  0  0  0
  8  9  1  0  0  0  0
  8 16  2  0  0  0  0
  9 10  2  0  0  0  0
  9 15  1  0  0  0  0
 10 11  1  0  0  0  0
 10 32  1  0  0  0  0
 11 12  2  0  0  0  0
 11 33  1  0  0  0  0
 12 13  1  0  0  0  0
 12 34  1  0  0  0  0
 13 14  1  0  0  0  0
 13 15  2  0  0  0  0
 15 35  1  0  0  0  0
 16 36  1  0  0  0  0
 17 18  2  0  0  0  0
 17 37  1  0  0  0  0
 18 19  1  0  0  0  0
 18 20  1  0  0  0  0
 19 38  1  0  0  0  0
 19 42  1  0  0  0  0
 20 21  1  0  0  0  0
 20 22  1  0  0  0  0
 21 39  1  0  0  0  0
 21 40  1  0  0  0  0
 21 41  1  0  0  0  0
 22 23  2  0  0  0  0
M  CHG  1  17   1
M  END
$$$$
