CAT-4p
                    3D
 Schrodinger Suite 2022-3.
 45 48  0  0  1  0  0  0  0  0999 V2000
   11.7490   -2.5850    1.3780 C   0  0  0  0  0  0  0  0  0  0  0  0
   13.0220   -3.0020    0.7570 N   0  0  0  0  0  0  0  0  0  0  0  0
   14.2370   -2.8730    1.4450 C   0  0  0  0  0  0  0  0  0  0  0  0
   14.3830   -2.7020    2.7880 N   0  0  0  0  0  0  0  0  0  0  0  0
   15.2910   -3.0370    0.5660 N   0  3  0  0  0  0  0  0  0  0  0  0
   14.8170   -3.4020   -0.8260 C   0  0  2  0  0  0  0  0  0  0  0  0
   15.2540   -4.8200   -1.1330 C   0  0  0  0  0  0  0  0  0  0  0  0
   14.3520   -5.7980   -1.5730 C   0  0  0  0  0  0  0  0  0  0  0  0
   14.7740   -7.1250   -1.7110 C   0  0  0  0  0  0  0  0  0  0  0  0
   16.0930   -7.4800   -1.4160 C   0  0  0  0  0  0  0  0  0  0  0  0
   17.0120   -6.4930   -1.0440 C   0  0  0  0  0  0  0  0  0  0  0  0
   16.5980   -5.1680   -0.9070 C   0  0  0  0  0  0  0  0  0  0  0  0
   15.2540   -2.3130   -1.7910 C   0  0  0  0  0  0  0  0  0  0  0  0
   15.8810   -2.6110   -3.0040 C   0  0  0  0  0  0  0  0  0  0  0  0
   16.2190   -1.5670   -3.8760 C   0  0  0  0  0  0  0  0  0  0  0  0
   15.9340   -0.2400   -3.5530 C   0  0  0  0  0  0  0  0  0  0  0  0
   15.3030    0.0660   -2.3320 C   0  0  0  0  0  0  0  0  0  0  0  0
   14.9740    1.4570   -1.9670 C   0  0  0  0  0  0  0  0  0  0  0  0
   14.3060    2.3110   -2.8730 C   0  0  0  0  0  0  0  0  0  0  0  0
   13.9400    3.5770   -2.5510 N   0  0  0  0  0  0  0  0  0  0  0  0
   14.2230    4.0490   -1.3120 C   0  0  0  0  0  0  0  0  0  0  0  0
   14.8950    3.2530   -0.3630 C   0  0  0  0  0  0  0  0  0  0  0  0
   15.2000    3.8600    1.2070 Cl  0  0  0  0  0  0  0  0  0  0  0  0
   15.2830    1.9530   -0.6900 C   0  0  0  0  0  0  0  0  0  0  0  0
   14.9700   -0.9760   -1.4580 C   0  0  0  0  0  0  0  0  0  0  0  0
   13.2600   -3.2810   -0.6650 C   0  0  0  0  0  0  0  0  0  0  0  0
   12.3710   -3.3690   -1.4520 O   0  0  0  0  0  0  0  0  0  0  0  0
   11.7870   -1.4820    1.5850 H   0  0  0  0  0  0  0  0  0  0  0  0
   10.8960   -2.8150    0.6860 H   0  0  0  0  0  0  0  0  0  0  0  0
   11.5970   -3.1400    2.3440 H   0  0  0  0  0  0  0  0  0  0  0  0
   15.3560   -2.5670    3.1760 H   0  0  0  0  0  0  0  0  0  0  0  0
   16.2650   -3.2160    0.9150 H   0  0  0  0  0  0  0  0  0  0  0  0
   13.3160   -5.5470   -1.8120 H   0  0  0  0  0  0  0  0  0  0  0  0
   14.0600   -7.8890   -2.0370 H   0  0  0  0  0  0  0  0  0  0  0  0
   16.4030   -8.5280   -1.4540 H   0  0  0  0  0  0  0  0  0  0  0  0
   18.0500   -6.7570   -0.8250 H   0  0  0  0  0  0  0  0  0  0  0  0
   17.3180   -4.4040   -0.6050 H   0  0  0  0  0  0  0  0  0  0  0  0
   16.1090   -3.6440   -3.2740 H   0  0  0  0  0  0  0  0  0  0  0  0
   16.7190   -1.7900   -4.8220 H   0  0  0  0  0  0  0  0  0  0  0  0
   16.2100    0.5590   -4.2500 H   0  0  0  0  0  0  0  0  0  0  0  0
   14.0460    1.9600   -3.8870 H   0  0  0  0  0  0  0  0  0  0  0  0
   13.8970    5.0760   -1.0750 H   0  0  0  0  0  0  0  0  0  0  0  0
   15.8050    1.3190    0.0300 H   0  0  0  0  0  0  0  0  0  0  0  0
   14.4890   -0.7500   -0.5070 H   0  0  0  0  0  0  0  0  0  0  0  0
   13.6510   -2.2150    3.3600 H   0  0  0  0  0  0  0  0  0  0  0  0
  1  2  1  0  0  0  0
  1 28  1  0  0  0  0
  1 29  1  0  0  0  0
  1 30  1  0  0  0  0
  2  3  1  0  0  0  0
  2 26  1  0  0  0  0
  3  4  1  0  0  0  0
  3  5  2  0  0  0  0
  4 31  1  0  0  0  0
  4 45  1  0  0  0  0
  5  6  1  0  0  0  0
  5 32  1  0  0  0  0
  6  7  1  0  0  0  0
  6 13  1  0  0  0  0
  6 26  1  0  0  0  0
  7  8  2  0  0  0  0
  7 12  1  0  0  0  0
  8  9  1  0  0  0  0
  8 33  1  0  0  0  0
  9 10  2  0  0  0  0
  9 34  1  0  0  0  0
 10 11  1  0  0  0  0
 10 35  1  0  0  0  0
 11 12  2  0  0  0  0
 11 36  1  0  0  0  0
 12 37  1  0  0  0  0
 13 14  2  0  0  0  0
 13 25  1  0  0  0  0
 14 15  1  0  0  0  0
 14 38  1  0  0  0  0
 15 16  2  0  0  0  0
 15 39  1  0  0  0  0
 16 17  1  0  0  0  0
 16 40  1  0  0  0  0
 17 18  1  0  0  0  0
 17 25  2  0  0  0  0
 18 19  2  0  0  0  0
 18 24  1  0  0  0  0
 19 20  1  0  0  0  0
 19 41  1  0  0  0  0
 20 21  2  0  0  0  0
 21 22  1  0  0  0  0
 21 42  1  0  0  0  0
 22 23  1  0  0  0  0
 22 24  2  0  0  0  0
 24 43  1  0  0  0  0
 25 44  1  0  0  0  0
 26 27  2  0  0  0  0
M  CHG  1   5   1
M  END
$$$$
