2ee
                    3D
 Schrodinger Suite 2022-3.
 52 55  0  0  1  0  0  0  0  0999 V2000
   27.5950    8.3580   30.8360 C   0  0  0  0  0  0  0  0  0  0  0  0
   28.8750    8.8500   31.5410 C   0  0  0  0  0  0  0  0  0  0  0  0
   28.0280    7.9930   33.7130 C   0  0  0  0  0  0  0  0  0  0  0  0
   26.7440    7.4690   33.0440 C   0  0  0  0  0  0  0  0  0  0  0  0
   15.9800   10.5420   31.6940 C   0  0  0  0  0  0  0  0  0  0  0  0
   29.1790    8.0580   32.7700 N   0  0  0  0  0  0  0  0  0  0  0  0
   21.4050   12.5080   31.3190 C   0  0  0  0  0  0  0  0  0  0  0  0
   17.2790   11.0270   31.8180 C   0  0  0  0  0  0  0  0  0  0  0  0
   24.0110    8.4470   30.9960 C   0  0  0  0  0  0  0  0  0  0  0  0
   26.4040    8.3530   31.8220 C   0  0  0  0  0  0  0  0  0  0  0  0
   21.5700    9.6960   30.7180 C   0  0  0  0  0  0  0  0  0  0  0  0
   20.2940   10.3540   30.6660 C   0  0  0  0  0  0  0  0  0  0  0  0
   15.3020   10.8540   30.5090 C   0  0  0  0  0  0  0  0  0  0  0  0
   15.8640   11.6180   29.4830 C   0  0  0  0  0  0  0  0  0  0  0  0
   17.1640   12.1090   29.6390 C   0  0  0  0  0  0  0  0  0  0  0  0
   22.7220   10.4060   31.1700 C   0  0  0  0  0  0  0  0  0  0  0  0
   21.7560    8.3360   30.3550 C   0  0  0  0  0  0  0  0  0  0  0  0
   20.2260   11.6670   30.9820 C   0  0  0  0  0  0  0  0  0  0  0  0
   17.8650   11.8260   30.8150 C   0  0  0  0  0  0  0  0  0  0  0  0
   23.8570   12.4910   31.9280 C   0  0  0  0  0  0  0  0  0  0  0  0
   17.9910   10.7290   32.8970 F   0  0  0  0  0  0  0  0  0  0  0  0
   14.0700   10.3760   30.3460 F   0  0  0  0  0  0  0  0  0  0  0  0
   19.0890   12.4710   31.0360 O   0  0  0  0  0  0  0  0  0  0  0  0
   22.9290    7.7010   30.4810 N   0  0  0  0  0  0  0  0  0  0  0  0
   21.4010   13.7100   31.4740 O   0  0  0  0  0  0  0  0  0  0  0  0
   22.6340   11.7750   31.4700 N   0  0  0  0  0  0  0  0  0  0  0  0
   23.9380    9.7890   31.3170 N   0  0  0  0  0  0  0  0  0  0  0  0
   25.2060    7.7890   31.1380 N   0  0  0  0  0  0  0  0  0  0  0  0
   15.3120   11.8240   28.5640 H   0  0  0  0  0  0  0  0  0  0  0  0
   17.6240   12.7030   28.8420 H   0  0  0  0  0  0  0  0  0  0  0  0
   15.5290    9.9190   32.4670 H   0  0  0  0  0  0  0  0  0  0  0  0
   19.4230    9.7650   30.3740 H   0  0  0  0  0  0  0  0  0  0  0  0
   20.9120    7.7580   29.9460 H   0  0  0  0  0  0  0  0  0  0  0  0
   27.7380    7.3240   30.4470 H   0  0  0  0  0  0  0  0  0  0  0  0
   27.3690    9.0350   29.9790 H   0  0  0  0  0  0  0  0  0  0  0  0
   28.7360    9.9210   31.8550 H   0  0  0  0  0  0  0  0  0  0  0  0
   29.7380    8.7860   30.8270 H   0  0  0  0  0  0  0  0  0  0  0  0
   28.2670    7.3520   34.6000 H   0  0  0  0  0  0  0  0  0  0  0  0
   27.8530    9.0410   34.0850 H   0  0  0  0  0  0  0  0  0  0  0  0
   25.9090    7.4940   33.7830 H   0  0  0  0  0  0  0  0  0  0  0  0
   26.8850    6.4070   32.7250 H   0  0  0  0  0  0  0  0  0  0  0  0
   26.1920    9.4020   32.1670 H   0  0  0  0  0  0  0  0  0  0  0  0
   24.3110   11.9510   32.8020 H   0  0  0  0  0  0  0  0  0  0  0  0
   24.6180   12.5210   31.1000 H   0  0  0  0  0  0  0  0  0  0  0  0
   23.6030   13.5390   32.2340 H   0  0  0  0  0  0  0  0  0  0  0  0
   25.2670    6.7780   30.9060 H   0  0  0  0  0  0  0  0  0  0  0  0
   30.1990    7.0810   32.7470 C   0  0  0  0  0  0  0  0  0  0  0  0
   31.1150    7.2070   31.9410 O   0  0  0  0  0  0  0  0  0  0  0  0
   30.2010    6.0030   33.7930 C   0  0  0  0  0  0  0  0  0  0  0  0
   29.2600    5.3980   33.7580 H   0  0  0  0  0  0  0  0  0  0  0  0
   31.0560    5.2980   33.6330 H   0  0  0  0  0  0  0  0  0  0  0  0
   30.3050    6.4260   34.8250 H   0  0  0  0  0  0  0  0  0  0  0  0
  1  2  1  0  0  0  0
  1 10  1  0  0  0  0
  1 34  1  0  0  0  0
  1 35  1  0  0  0  0
  2  6  1  0  0  0  0
  2 36  1  0  0  0  0
  2 37  1  0  0  0  0
  3  4  1  0  0  0  0
  3  6  1  0  0  0  0
  3 38  1  0  0  0  0
  3 39  1  0  0  0  0
  4 10  1  0  0  0  0
  4 40  1  0  0  0  0
  4 41  1  0  0  0  0
  5  8  1  0  0  0  0
  5 13  2  0  0  0  0
  5 31  1  0  0  0  0
  6 47  1  0  0  0  0
  7 18  1  0  0  0  0
  7 25  2  0  0  0  0
  7 26  1  0  0  0  0
  8 19  2  0  0  0  0
  8 21  1  0  0  0  0
  9 24  1  0  0  0  0
  9 27  2  0  0  0  0
  9 28  1  0  0  0  0
 10 28  1  0  0  0  0
 10 42  1  0  0  0  0
 11 12  1  0  0  0  0
 11 16  2  0  0  0  0
 11 17  1  0  0  0  0
 12 18  2  0  0  0  0
 12 32  1  0  0  0  0
 13 14  1  0  0  0  0
 13 22  1  0  0  0  0
 14 15  2  0  0  0  0
 14 29  1  0  0  0  0
 15 19  1  0  0  0  0
 15 30  1  0  0  0  0
 16 26  1  0  0  0  0
 16 27  1  0  0  0  0
 17 24  2  0  0  0  0
 17 33  1  0  0  0  0
 18 23  1  0  0  0  0
 19 23  1  0  0  0  0
 20 26  1  0  0  0  0
 20 43  1  0  0  0  0
 20 44  1  0  0  0  0
 20 45  1  0  0  0  0
 28 46  1  0  0  0  0
 47 48  2  0  0  0  0
 47 49  1  0  0  0  0
 49 50  1  0  0  0  0
 49 51  1  0  0  0  0
 49 52  1  0  0  0  0
M  END
$$$$
