p38a_2o
 OpenBabel02232411163D
Structure written by MMmdl.
 55 58  0  0  0  0  0  0  0  0999 V2000
   36.3510   35.9620   15.8940 C   0  0  0  0  0  0  0  0  0  0  0  0
   34.5520   35.0140   21.4900 C   0  0  0  0  0  0  0  0  0  0  0  0
   35.6290   35.5190   16.9990 C   0  0  0  0  0  0  0  0  0  0  0  0
   34.1160   39.1420   23.9750 C   0  0  0  0  0  0  0  0  0  0  0  0
   34.7030   37.8800   21.5960 C   0  0  0  0  0  0  0  0  0  0  0  0
   35.0790   37.2010   20.3870 C   0  0  0  0  0  0  0  0  0  0  0  0
   37.6420   36.4450   16.1450 C   0  0  0  0  0  0  0  0  0  0  0  0
   38.2270   36.4580   17.4140 C   0  0  0  0  0  0  0  0  0  0  0  0
   37.4700   36.0390   18.5130 C   0  0  0  0  0  0  0  0  0  0  0  0
   34.3620   37.1370   22.7650 C   0  0  0  0  0  0  0  0  0  0  0  0
   34.6720   39.2990   21.7010 C   0  0  0  0  0  0  0  0  0  0  0  0
   35.0370   35.8490   20.3630 C   0  0  0  0  0  0  0  0  0  0  0  0
   36.1680   35.5730   18.3000 C   0  0  0  0  0  0  0  0  0  0  0  0
   34.4100   35.0180   16.8490 F   0  0  0  0  0  0  0  0  0  0  0  0
   35.3680   35.0070   19.3010 O   0  0  0  0  0  0  0  0  0  0  0  0
   34.3850   39.9390   22.8410 N   0  0  0  0  0  0  0  0  0  0  0  0
   34.3800   33.8140   21.4420 O   0  0  0  0  0  0  0  0  0  0  0  0
   34.2990   35.7290   22.7160 N   0  0  0  0  0  0  0  0  0  0  0  0
   34.0920   37.7590   23.9560 N   0  0  0  0  0  0  0  0  0  0  0  0
   33.8010   39.7970   25.1390 N   0  0  0  0  0  0  0  0  0  0  0  0
   35.9250   35.9580   14.8880 H   0  0  0  0  0  0  0  0  0  0  0  0
   35.4020   37.8040   19.5340 H   0  0  0  0  0  0  0  0  0  0  0  0
   39.2500   36.8200   17.5530 H   0  0  0  0  0  0  0  0  0  0  0  0
   37.8890   36.0990   19.5190 H   0  0  0  0  0  0  0  0  0  0  0  0
   34.8910   39.9180   20.8140 H   0  0  0  0  0  0  0  0  0  0  0  0
   33.8730   40.8350   25.1740 H   0  0  0  0  0  0  0  0  0  0  0  0
   38.3280   36.9500   15.1220 F   0  0  0  0  0  0  0  0  0  0  0  0
   32.6680   39.2280   28.7420 C   0  0  0  0  0  0  0  0  0  0  0  0
   32.6520   39.7930   27.3160 C   0  0  0  0  0  0  0  0  0  0  0  0
   33.7440   39.1110   26.4670 C   0  0  0  0  0  0  0  0  0  0  0  0
   35.1170   39.2160   27.1670 C   0  0  0  0  0  0  0  0  0  0  0  0
   35.0190   38.6810   28.6010 C   0  0  0  0  0  0  0  0  0  0  0  0
   33.9740   39.3430   29.3490 O   0  0  0  0  0  0  0  0  0  0  0  0
   32.3560   38.1580   28.7500 H   0  0  0  0  0  0  0  0  0  0  0  0
   32.0360   39.8450   29.4230 H   0  0  0  0  0  0  0  0  0  0  0  0
   32.8340   40.8940   27.3510 H   0  0  0  0  0  0  0  0  0  0  0  0
   31.6520   39.6190   26.8520 H   0  0  0  0  0  0  0  0  0  0  0  0
   33.4780   38.0290   26.3090 H   0  0  0  0  0  0  0  0  0  0  0  0
   35.8740   38.6220   26.6020 H   0  0  0  0  0  0  0  0  0  0  0  0
   35.4480   40.2830   27.1820 H   0  0  0  0  0  0  0  0  0  0  0  0
   34.8250   37.5840   28.6030 H   0  0  0  0  0  0  0  0  0  0  0  0
   35.9310   38.9400   29.1880 H   0  0  0  0  0  0  0  0  0  0  0  0
   33.9410   34.9380   23.9490 C   0  0  0  0  0  0  0  0  0  0  0  0
   34.3260   33.8930   23.7870 H   0  0  0  0  0  0  0  0  0  0  0  0
   34.4780   35.4040   24.8260 H   0  0  0  0  0  0  0  0  0  0  0  0
   32.4310   34.9320   24.2000 C   0  0  0  0  0  0  0  0  0  0  0  0
   32.1240   35.9630   24.5420 H   0  0  0  0  0  0  0  0  0  0  0  0
   31.8860   34.7590   23.2330 H   0  0  0  0  0  0  0  0  0  0  0  0
   31.8780   33.7410   25.3890 S   0  0  0  0  0  0  0  0  0  0  0  0
   30.5080   34.0850   25.8290 O   0  0  0  0  0  0  0  0  0  0  0  0
   32.8040   33.6430   26.5350 O   0  0  0  0  0  0  0  0  0  0  0  0
   31.8360   32.2360   24.5220 C   0  0  0  0  0  0  0  0  0  0  0  0
   32.8560   31.8610   24.2530 H   0  0  0  0  0  0  0  0  0  0  0  0
   31.3580   31.4180   25.1260 H   0  0  0  0  0  0  0  0  0  0  0  0
   31.2470   32.3050   23.5720 H   0  0  0  0  0  0  0  0  0  0  0  0
  1  3  2  0  0  0  0
  1  7  1  0  0  0  0
  1 21  1  0  0  0  0
  2 12  1  0  0  0  0
  2 17  2  0  0  0  0
  2 18  1  0  0  0  0
  3 13  1  0  0  0  0
  3 14  1  0  0  0  0
  4 16  2  0  0  0  0
  4 19  1  0  0  0  0
  4 20  1  0  0  0  0
  5  6  1  0  0  0  0
  5 10  1  0  0  0  0
  5 11  2  0  0  0  0
  6 12  2  0  0  0  0
  6 22  1  0  0  0  0
  7  8  2  0  0  0  0
  7 27  1  0  0  0  0
  8  9  1  0  0  0  0
  8 23  1  0  0  0  0
  9 13  2  0  0  0  0
  9 24  1  0  0  0  0
 10 18  1  0  0  0  0
 10 19  2  0  0  0  0
 11 16  1  0  0  0  0
 11 25  1  0  0  0  0
 12 15  1  0  0  0  0
 13 15  1  0  0  0  0
 18 43  1  0  0  0  0
 20 26  1  0  0  0  0
 20 30  1  0  0  0  0
 28 29  1  0  0  0  0
 28 33  1  0  0  0  0
 28 34  1  0  0  0  0
 28 35  1  0  0  0  0
 29 30  1  0  0  0  0
 29 36  1  0  0  0  0
 29 37  1  0  0  0  0
 30 31  1  0  0  0  0
 30 38  1  0  0  0  0
 31 32  1  0  0  0  0
 31 39  1  0  0  0  0
 31 40  1  0  0  0  0
 32 33  1  0  0  0  0
 32 41  1  0  0  0  0
 32 42  1  0  0  0  0
 43 44  1  0  0  0  0
 43 45  1  0  0  0  0
 43 46  1  0  0  0  0
 46 47  1  0  0  0  0
 46 48  1  0  0  0  0
 46 49  1  0  0  0  0
 49 50  2  0  0  0  0
 49 51  2  0  0  0  0
 49 52  1  0  0  0  0
 52 53  1  0  0  0  0
 52 54  1  0  0  0  0
 52 55  1  0  0  0  0
M  END
$$$$
