p38a_2ff
 OpenBabel02232411163D
Structure written by MMmdl.
 49 52  0  0  1  0  0  0  0  0999 V2000
   38.2750   36.5380   17.1400 C   0  0  0  0  0  0  0  0  0  0  0  0
   34.5870   35.0970   21.1910 C   0  0  0  0  0  0  0  0  0  0  0  0
   37.4700   36.0770   18.1780 C   0  0  0  0  0  0  0  0  0  0  0  0
   34.0420   39.1830   23.7210 C   0  0  0  0  0  0  0  0  0  0  0  0
   34.6340   37.9770   21.3130 C   0  0  0  0  0  0  0  0  0  0  0  0
   34.9950   37.3160   20.0890 C   0  0  0  0  0  0  0  0  0  0  0  0
   37.6480   36.7130   15.8980 C   0  0  0  0  0  0  0  0  0  0  0  0
   36.3010   36.4250   15.6670 C   0  0  0  0  0  0  0  0  0  0  0  0
   35.5180   35.9480   16.7230 C   0  0  0  0  0  0  0  0  0  0  0  0
   34.3460   37.2080   22.4800 C   0  0  0  0  0  0  0  0  0  0  0  0
   34.5720   39.3900   21.4430 C   0  0  0  0  0  0  0  0  0  0  0  0
   35.0050   35.9630   20.0580 C   0  0  0  0  0  0  0  0  0  0  0  0
   36.1080   35.7670   17.9770 C   0  0  0  0  0  0  0  0  0  0  0  0
   34.0410   35.0300   23.6560 C   0  0  0  0  0  0  0  0  0  0  0  0
   37.9810   35.9280   19.3940 F   0  0  0  0  0  0  0  0  0  0  0  0
   35.3610   35.1450   18.9860 O   0  0  0  0  0  0  0  0  0  0  0  0
   34.2900   40.0050   22.6010 N   0  0  0  0  0  0  0  0  0  0  0  0
   34.4510   33.8930   21.1460 O   0  0  0  0  0  0  0  0  0  0  0  0
   34.3330   35.8050   22.4170 N   0  0  0  0  0  0  0  0  0  0  0  0
   34.0680   37.8030   23.6850 N   0  0  0  0  0  0  0  0  0  0  0  0
   33.6870   39.8130   24.8900 N   0  0  0  0  0  0  0  0  0  0  0  0
   39.3280   36.7870   17.2930 H   0  0  0  0  0  0  0  0  0  0  0  0
   35.2630   37.9320   19.2290 H   0  0  0  0  0  0  0  0  0  0  0  0
   35.8480   36.5830   14.6860 H   0  0  0  0  0  0  0  0  0  0  0  0
   34.4550   35.7380   16.5630 H   0  0  0  0  0  0  0  0  0  0  0  0
   34.7580   40.0330   20.5660 H   0  0  0  0  0  0  0  0  0  0  0  0
   34.7710   35.3100   24.4640 H   0  0  0  0  0  0  0  0  0  0  0  0
   33.0050   35.2630   24.0230 H   0  0  0  0  0  0  0  0  0  0  0  0
   34.1200   33.9300   23.4550 H   0  0  0  0  0  0  0  0  0  0  0  0
   33.7670   40.8460   24.9600 H   0  0  0  0  0  0  0  0  0  0  0  0
   38.3640   37.2200   14.8980 F   0  0  0  0  0  0  0  0  0  0  0  0
   32.2770   39.0210   28.3510 C   0  0  0  0  0  0  0  0  0  0  0  0
   32.3560   39.6290   26.9450 C   0  0  0  0  0  0  0  0  0  0  0  0
   33.6180   39.1150   26.2100 C   0  0  2  0  0  0  0  0  0  0  0  0
   34.9060   39.4200   27.0130 C   0  0  0  0  0  0  0  0  0  0  0  0
   34.8140   38.8450   28.4310 C   0  0  0  0  0  0  0  0  0  0  0  0
   33.5520   39.3680   29.1430 C   0  0  2  0  0  0  0  0  0  0  0  0
   32.1620   37.9140   28.2710 H   0  0  0  0  0  0  0  0  0  0  0  0
   31.3840   39.4230   28.8820 H   0  0  0  0  0  0  0  0  0  0  0  0
   32.3960   40.7410   27.0210 H   0  0  0  0  0  0  0  0  0  0  0  0
   31.4470   39.3460   26.3630 H   0  0  0  0  0  0  0  0  0  0  0  0
   33.5270   38.0060   26.0570 H   0  0  0  0  0  0  0  0  0  0  0  0
   35.7810   38.9640   26.4930 H   0  0  0  0  0  0  0  0  0  0  0  0
   35.0620   40.5250   27.0670 H   0  0  0  0  0  0  0  0  0  0  0  0
   34.7880   37.7300   28.3770 H   0  0  0  0  0  0  0  0  0  0  0  0
   35.7220   39.1430   29.0080 H   0  0  0  0  0  0  0  0  0  0  0  0
   33.6210   40.4670   29.3300 H   0  0  0  0  0  0  0  0  0  0  0  0
   33.4730   38.8360   30.4780 O   0  0  0  0  0  0  0  0  0  0  0  0
   33.4140   37.8470   30.4430 H   0  0  0  0  0  0  0  0  0  0  0  0
  1  3  2  0  0  0  0
  1  7  1  0  0  0  0
  1 22  1  0  0  0  0
  2 12  1  0  0  0  0
  2 18  2  0  0  0  0
  2 19  1  0  0  0  0
  3 13  1  0  0  0  0
  3 15  1  0  0  0  0
  4 17  2  0  0  0  0
  4 20  1  0  0  0  0
  4 21  1  0  0  0  0
  5  6  1  0  0  0  0
  5 10  1  0  0  0  0
  5 11  2  0  0  0  0
  6 12  2  0  0  0  0
  6 23  1  0  0  0  0
  7  8  2  0  0  0  0
  7 31  1  0  0  0  0
  8  9  1  0  0  0  0
  8 24  1  0  0  0  0
  9 13  2  0  0  0  0
  9 25  1  0  0  0  0
 10 19  1  0  0  0  0
 10 20  2  0  0  0  0
 11 17  1  0  0  0  0
 11 26  1  0  0  0  0
 12 16  1  0  0  0  0
 13 16  1  0  0  0  0
 14 19  1  0  0  0  0
 14 27  1  0  0  0  0
 14 28  1  0  0  0  0
 14 29  1  0  0  0  0
 21 30  1  0  0  0  0
 21 34  1  0  0  0  0
 32 33  1  0  0  0  0
 32 37  1  0  0  0  0
 32 38  1  0  0  0  0
 32 39  1  0  0  0  0
 33 34  1  0  0  0  0
 33 40  1  0  0  0  0
 33 41  1  0  0  0  0
 34 35  1  0  0  0  0
 34 42  1  6  0  0  0
 35 36  1  0  0  0  0
 35 43  1  0  0  0  0
 35 44  1  0  0  0  0
 36 37  1  0  0  0  0
 36 45  1  0  0  0  0
 36 46  1  0  0  0  0
 37 47  1  1  0  0  0
 37 48  1  0  0  0  0
 48 49  1  0  0  0  0
M  END
$$$$
