20667(2qbp)
 OpenBabel02232411173D
Structure written by MMmdl.
 60 63  0  0  0  0  0  0  0  0999 V2000
   42.4310   18.0270   12.6600 O   0  0  0  0  0  0  0  0  0  0  0  0
   41.2880   17.7610   13.0490 C   0  0  0  0  0  0  0  0  0  0  0  0
   40.2400   18.3700   12.7460 O   0  5  0  0  0  0  0  0  0  0  0  0
   41.0960   16.5600   14.0200 C   0  0  0  0  0  0  0  0  0  0  0  0
   42.4260   15.9540   13.9620 O   0  0  0  0  0  0  0  0  0  0  0  0
   42.6290   14.9630   14.8710 C   0  0  0  0  0  0  0  0  0  0  0  0
   42.0380   13.6450   14.7470 C   0  0  0  0  0  0  0  0  0  0  0  0
   40.8890   13.2830   13.2730 Br  0  0  0  0  0  0  0  0  0  0  0  0
   42.4180   12.7500   15.7130 C   0  0  0  0  0  0  0  0  0  0  0  0
   42.0130   11.3830   15.9810 C   0  0  0  0  0  0  0  0  0  0  0  0
   42.7290   10.5520   16.8810 C   0  0  0  0  0  0  0  0  0  0  0  0
   42.2850    9.2620   17.1450 C   0  0  0  0  0  0  0  0  0  0  0  0
   41.1540    8.7210   16.5150 C   0  0  0  0  0  0  0  0  0  0  0  0
   40.4570    9.5170   15.5960 C   0  0  0  0  0  0  0  0  0  0  0  0
   39.3900    9.0380   14.7900 N   0  0  0  0  0  0  0  0  0  0  0  0
   38.5290    7.9070   15.2070 C   0  0  0  0  0  0  0  0  0  0  0  0
   37.0540    8.1420   14.7880 C   0  0  0  0  0  0  0  0  0  0  0  0
   36.8320    8.0430   13.2690 C   0  0  0  0  0  0  0  0  0  0  0  0
   37.3770    6.7930   12.6750 N   0  0  0  0  0  0  0  0  0  0  0  0
   36.3600    5.5260   12.2070 S   0  0  0  0  0  0  0  0  0  0  0  0
   36.9730    4.9010   11.0330 O   0  0  0  0  0  0  0  0  0  0  0  0
   35.0850    6.1760   11.8590 O   0  0  0  0  0  0  0  0  0  0  0  0
   36.2530    4.2980   13.4580 C   0  0  0  0  0  0  0  0  0  0  0  0
   35.1230    4.4200   14.4260 C   0  0  0  0  0  0  0  0  0  0  0  0
   35.3300    5.0280   15.6740 C   0  0  0  0  0  0  0  0  0  0  0  0
   34.3010    5.0740   16.6190 C   0  0  0  0  0  0  0  0  0  0  0  0
   33.0600    4.4980   16.3360 C   0  0  0  0  0  0  0  0  0  0  0  0
   32.8580    3.8670   15.1040 C   0  0  0  0  0  0  0  0  0  0  0  0
   33.8760    3.8350   14.1470 C   0  0  0  0  0  0  0  0  0  0  0  0
   38.7900    6.5280   13.0590 C   0  0  0  0  0  0  0  0  0  0  0  0
   39.0330    6.5850   14.5750 C   0  0  0  0  0  0  0  0  0  0  0  0
   40.8700   10.8510   15.3740 C   0  0  0  0  0  0  0  0  0  0  0  0
   43.5860   13.5480   16.7520 S   0  0  0  0  0  0  0  0  0  0  0  0
   43.5220   15.0730   15.9040 C   0  0  0  0  0  0  0  0  0  0  0  0
   44.3750   16.2630   16.3550 C   0  0  0  0  0  0  0  0  0  0  0  0
   44.9780   16.0990   17.4400 O   0  0  0  0  0  0  0  0  0  0  0  0
   44.4470   17.2500   15.6230 O   0  5  0  0  0  0  0  0  0  0  0  0
   40.3280   15.8530   13.6470 H   0  0  0  0  0  0  0  0  0  0  0  0
   40.8570   16.8810   15.0530 H   0  0  0  0  0  0  0  0  0  0  0  0
   43.6350   10.8980   17.3820 H   0  0  0  0  0  0  0  0  0  0  0  0
   42.8210    8.6320   17.8610 H   0  0  0  0  0  0  0  0  0  0  0  0
   40.8510    7.6990   16.7240 H   0  0  0  0  0  0  0  0  0  0  0  0
   38.9050    9.7390   14.2110 H   0  0  0  0  0  0  0  0  0  0  0  0
   38.5580    7.7750   16.3230 H   0  0  0  0  0  0  0  0  0  0  0  0
   36.4330    7.3790   15.3110 H   0  0  0  0  0  0  0  0  0  0  0  0
   36.7180    9.1470   15.1320 H   0  0  0  0  0  0  0  0  0  0  0  0
   35.7360    8.1130   13.0540 H   0  0  0  0  0  0  0  0  0  0  0  0
   37.3720    8.8990   12.7710 H   0  0  0  0  0  0  0  0  0  0  0  0
   36.1970    3.2750   12.9750 H   0  0  0  0  0  0  0  0  0  0  0  0
   37.2240    4.2640   14.0400 H   0  0  0  0  0  0  0  0  0  0  0  0
   36.3120    5.4320   15.9370 H   0  0  0  0  0  0  0  0  0  0  0  0
   34.4850    5.5350   17.5950 H   0  0  0  0  0  0  0  0  0  0  0  0
   32.2630    4.5150   17.0820 H   0  0  0  0  0  0  0  0  0  0  0  0
   31.9040    3.3760   14.8970 H   0  0  0  0  0  0  0  0  0  0  0  0
   33.6980    3.3300   13.1930 H   0  0  0  0  0  0  0  0  0  0  0  0
   39.1210    5.5320   12.6740 H   0  0  0  0  0  0  0  0  0  0  0  0
   39.4180    7.3360   12.5870 H   0  0  0  0  0  0  0  0  0  0  0  0
   40.1330    6.4880   14.7540 H   0  0  0  0  0  0  0  0  0  0  0  0
   38.5340    5.7370   15.0920 H   0  0  0  0  0  0  0  0  0  0  0  0
   40.2610   11.4450   14.6940 H   0  0  0  0  0  0  0  0  0  0  0  0
  1  2  2  0  0  0  0
  2  3  1  0  0  0  0
  2  4  1  0  0  0  0
  4  5  1  0  0  0  0
  4 38  1  0  0  0  0
  4 39  1  0  0  0  0
  5  6  1  0  0  0  0
  6 34  2  0  0  0  0
  6  7  1  0  0  0  0
  7  8  1  0  0  0  0
  7  9  2  0  0  0  0
  9 10  1  0  0  0  0
  9 33  1  0  0  0  0
 10 32  2  0  0  0  0
 10 11  1  0  0  0  0
 11 12  2  0  0  0  0
 11 40  1  0  0  0  0
 12 13  1  0  0  0  0
 12 41  1  0  0  0  0
 13 14  2  0  0  0  0
 13 42  1  0  0  0  0
 14 15  1  0  0  0  0
 14 32  1  0  0  0  0
 15 16  1  0  0  0  0
 15 43  1  0  0  0  0
 16 31  1  0  0  0  0
 16 17  1  0  0  0  0
 16 44  1  0  0  0  0
 17 18  1  0  0  0  0
 17 45  1  0  0  0  0
 17 46  1  0  0  0  0
 18 19  1  0  0  0  0
 18 47  1  0  0  0  0
 18 48  1  0  0  0  0
 19 20  1  0  0  0  0
 19 30  1  0  0  0  0
 20 21  2  0  0  0  0
 20 22  2  0  0  0  0
 20 23  1  0  0  0  0
 23 24  1  0  0  0  0
 23 49  1  0  0  0  0
 23 50  1  0  0  0  0
 24 29  2  0  0  0  0
 24 25  1  0  0  0  0
 25 26  2  0  0  0  0
 25 51  1  0  0  0  0
 26 27  1  0  0  0  0
 26 52  1  0  0  0  0
 27 28  2  0  0  0  0
 27 53  1  0  0  0  0
 28 29  1  0  0  0  0
 28 54  1  0  0  0  0
 29 55  1  0  0  0  0
 30 31  1  0  0  0  0
 30 56  1  0  0  0  0
 30 57  1  0  0  0  0
 31 58  1  0  0  0  0
 31 59  1  0  0  0  0
 32 60  1  0  0  0  0
 33 34  1  0  0  0  0
 34 35  1  0  0  0  0
 35 36  2  0  0  0  0
 35 37  1  0  0  0  0
M  CHG  2   3  -1  37  -1
M  END
$$$$
