p38a_2e
 OpenBabel02232411163D
Structure written by MMmdl.
 46 49  0  0  0  0  0  0  0  0999 V2000
   32.5260   39.7490   27.1330 C   0  0  0  0  0  0  0  0  0  0  0  0
   32.5180   39.1370   28.5390 C   0  0  0  0  0  0  0  0  0  0  0  0
   34.8840   38.6600   28.4510 C   0  0  0  0  0  0  0  0  0  0  0  0
   35.0090   39.2380   27.0360 C   0  0  0  0  0  0  0  0  0  0  0  0
   38.2560   36.4710   17.2510 C   0  0  0  0  0  0  0  0  0  0  0  0
   33.8030   39.2780   29.1870 O   0  0  0  0  0  0  0  0  0  0  0  0
   34.5640   35.0960   21.3010 C   0  0  0  0  0  0  0  0  0  0  0  0
   37.4750   36.0310   18.3210 C   0  0  0  0  0  0  0  0  0  0  0  0
   34.0810   39.2010   23.8150 C   0  0  0  0  0  0  0  0  0  0  0  0
   33.6580   39.1170   26.2950 C   0  0  0  0  0  0  0  0  0  0  0  0
   34.6850   37.9730   21.4200 C   0  0  0  0  0  0  0  0  0  0  0  0
   35.0480   37.3010   20.2030 C   0  0  0  0  0  0  0  0  0  0  0  0
   37.6450   36.6080   15.9980 C   0  0  0  0  0  0  0  0  0  0  0  0
   36.3050   36.2900   15.7570 C   0  0  0  0  0  0  0  0  0  0  0  0
   35.5280   35.8360   16.8250 C   0  0  0  0  0  0  0  0  0  0  0  0
   34.3680   37.2140   22.5860 C   0  0  0  0  0  0  0  0  0  0  0  0
   34.6360   39.3880   21.5430 C   0  0  0  0  0  0  0  0  0  0  0  0
   35.0200   35.9480   20.1700 C   0  0  0  0  0  0  0  0  0  0  0  0
   36.1290   35.7170   18.0840 C   0  0  0  0  0  0  0  0  0  0  0  0
   34.0120   35.0470   23.7660 C   0  0  0  0  0  0  0  0  0  0  0  0
   37.9020   35.9680   19.3230 H   0  0  0  0  0  0  0  0  0  0  0  0
   38.3620   37.1120   14.9930 F   0  0  0  0  0  0  0  0  0  0  0  0
   35.3420   35.1270   19.0950 O   0  0  0  0  0  0  0  0  0  0  0  0
   34.3450   40.0130   22.6940 N   0  0  0  0  0  0  0  0  0  0  0  0
   34.3850   33.8980   21.2560 O   0  0  0  0  0  0  0  0  0  0  0  0
   34.3250   35.8110   22.5260 N   0  0  0  0  0  0  0  0  0  0  0  0
   34.0890   37.8200   23.7850 N   0  0  0  0  0  0  0  0  0  0  0  0
   33.7260   39.8340   24.9850 N   0  0  0  0  0  0  0  0  0  0  0  0
   31.5430   39.5630   26.6380 H   0  0  0  0  0  0  0  0  0  0  0  0
   32.6790   40.8520   27.2080 H   0  0  0  0  0  0  0  0  0  0  0  0
   31.8450   39.7040   29.2230 H   0  0  0  0  0  0  0  0  0  0  0  0
   32.2460   38.0560   28.5030 H   0  0  0  0  0  0  0  0  0  0  0  0
   34.7130   37.5590   28.4170 H   0  0  0  0  0  0  0  0  0  0  0  0
   35.7720   38.9180   29.0730 H   0  0  0  0  0  0  0  0  0  0  0  0
   35.3140   40.3110   27.0910 H   0  0  0  0  0  0  0  0  0  0  0  0
   35.7960   38.6760   26.4800 H   0  0  0  0  0  0  0  0  0  0  0  0
   39.3060   36.7370   17.4000 H   0  0  0  0  0  0  0  0  0  0  0  0
   33.4230   38.0310   26.1140 H   0  0  0  0  0  0  0  0  0  0  0  0
   35.3470   37.9090   19.3460 H   0  0  0  0  0  0  0  0  0  0  0  0
   35.8590   36.4130   14.7690 H   0  0  0  0  0  0  0  0  0  0  0  0
   34.4690   35.6080   16.6760 H   0  0  0  0  0  0  0  0  0  0  0  0
   34.8390   40.0210   20.6630 H   0  0  0  0  0  0  0  0  0  0  0  0
   34.7630   35.2940   24.5650 H   0  0  0  0  0  0  0  0  0  0  0  0
   32.9910   35.3240   24.1450 H   0  0  0  0  0  0  0  0  0  0  0  0
   34.0420   33.9460   23.5620 H   0  0  0  0  0  0  0  0  0  0  0  0
   33.8160   40.8670   25.0540 H   0  0  0  0  0  0  0  0  0  0  0  0
  1  2  1  0  0  0  0
  1 10  1  0  0  0  0
  1 29  1  0  0  0  0
  1 30  1  0  0  0  0
  2  6  1  0  0  0  0
  2 31  1  0  0  0  0
  2 32  1  0  0  0  0
  3  4  1  0  0  0  0
  3  6  1  0  0  0  0
  3 33  1  0  0  0  0
  3 34  1  0  0  0  0
  4 10  1  0  0  0  0
  4 35  1  0  0  0  0
  4 36  1  0  0  0  0
  5  8  2  0  0  0  0
  5 13  1  0  0  0  0
  5 37  1  0  0  0  0
  7 18  1  0  0  0  0
  7 25  2  0  0  0  0
  7 26  1  0  0  0  0
  8 19  1  0  0  0  0
  8 21  1  0  0  0  0
  9 24  2  0  0  0  0
  9 27  1  0  0  0  0
  9 28  1  0  0  0  0
 10 28  1  0  0  0  0
 10 38  1  0  0  0  0
 11 12  1  0  0  0  0
 11 16  1  0  0  0  0
 11 17  2  0  0  0  0
 12 18  2  0  0  0  0
 12 39  1  0  0  0  0
 13 14  2  0  0  0  0
 13 22  1  0  0  0  0
 14 15  1  0  0  0  0
 14 40  1  0  0  0  0
 15 19  2  0  0  0  0
 15 41  1  0  0  0  0
 16 26  1  0  0  0  0
 16 27  2  0  0  0  0
 17 24  1  0  0  0  0
 17 42  1  0  0  0  0
 18 23  1  0  0  0  0
 19 23  1  0  0  0  0
 20 26  1  0  0  0  0
 20 43  1  0  0  0  0
 20 44  1  0  0  0  0
 20 45  1  0  0  0  0
 28 46  1  0  0  0  0
M  END
$$$$
