p38a_2u
 OpenBabel02232411163D
Structure written by MMmdl.
 64 68  0  0  0  0  0  0  0  0999 V2000
   38.2960   36.5580   17.1390 C   0  0  0  0  0  0  0  0  0  0  0  0
   34.5970   35.0670   21.2280 C   0  0  0  0  0  0  0  0  0  0  0  0
   37.5190   36.0990   18.1990 C   0  0  0  0  0  0  0  0  0  0  0  0
   33.9980   39.1380   23.7760 C   0  0  0  0  0  0  0  0  0  0  0  0
   34.6450   37.9440   21.3770 C   0  0  0  0  0  0  0  0  0  0  0  0
   35.0480   37.2980   20.1580 C   0  0  0  0  0  0  0  0  0  0  0  0
   37.6430   36.7120   15.9080 C   0  0  0  0  0  0  0  0  0  0  0  0
   36.2950   36.4070   15.7070 C   0  0  0  0  0  0  0  0  0  0  0  0
   35.5390   35.9330   16.7840 C   0  0  0  0  0  0  0  0  0  0  0  0
   34.3020   37.1620   22.5200 C   0  0  0  0  0  0  0  0  0  0  0  0
   34.5960   39.3570   21.5200 C   0  0  0  0  0  0  0  0  0  0  0  0
   35.0550   35.9470   20.1150 C   0  0  0  0  0  0  0  0  0  0  0  0
   36.1580   35.7700   18.0270 C   0  0  0  0  0  0  0  0  0  0  0  0
   38.0560   35.9690   19.4050 F   0  0  0  0  0  0  0  0  0  0  0  0
   35.4460   35.1350   19.0540 O   0  0  0  0  0  0  0  0  0  0  0  0
   34.2870   39.9670   22.6740 N   0  0  0  0  0  0  0  0  0  0  0  0
   34.4970   33.8630   21.1430 O   0  0  0  0  0  0  0  0  0  0  0  0
   34.2610   35.7540   22.4480 N   0  0  0  0  0  0  0  0  0  0  0  0
   34.0010   37.7590   23.7190 N   0  0  0  0  0  0  0  0  0  0  0  0
   33.6190   39.7520   24.9510 N   0  0  0  0  0  0  0  0  0  0  0  0
   39.3490   36.8220   17.2700 H   0  0  0  0  0  0  0  0  0  0  0  0
   35.3450   37.9240   19.3140 H   0  0  0  0  0  0  0  0  0  0  0  0
   35.8200   36.5480   14.7340 H   0  0  0  0  0  0  0  0  0  0  0  0
   34.4760   35.7100   16.6500 H   0  0  0  0  0  0  0  0  0  0  0  0
   34.8180   40.0040   20.6550 H   0  0  0  0  0  0  0  0  0  0  0  0
   33.7280   40.7830   25.0390 H   0  0  0  0  0  0  0  0  0  0  0  0
   38.3350   37.2140   14.8880 F   0  0  0  0  0  0  0  0  0  0  0  0
   32.4790   39.0600   28.5280 C   0  0  0  0  0  0  0  0  0  0  0  0
   32.4570   39.6600   27.1170 C   0  0  0  0  0  0  0  0  0  0  0  0
   33.5710   39.0240   26.2560 C   0  0  0  0  0  0  0  0  0  0  0  0
   34.9370   39.1260   26.9730 C   0  0  0  0  0  0  0  0  0  0  0  0
   34.8290   38.5640   28.3960 C   0  0  0  0  0  0  0  0  0  0  0  0
   33.7770   39.2140   29.1460 O   0  0  0  0  0  0  0  0  0  0  0  0
   32.2140   37.9770   28.5070 H   0  0  0  0  0  0  0  0  0  0  0  0
   31.8160   39.6300   29.2190 H   0  0  0  0  0  0  0  0  0  0  0  0
   32.6130   40.7630   27.1800 H   0  0  0  0  0  0  0  0  0  0  0  0
   31.4650   39.4680   26.6430 H   0  0  0  0  0  0  0  0  0  0  0  0
   33.3240   37.9420   26.0700 H   0  0  0  0  0  0  0  0  0  0  0  0
   35.7030   38.5430   26.4080 H   0  0  0  0  0  0  0  0  0  0  0  0
   35.2610   40.1940   27.0150 H   0  0  0  0  0  0  0  0  0  0  0  0
   34.6310   37.4670   28.3760 H   0  0  0  0  0  0  0  0  0  0  0  0
   35.7360   38.8060   28.9960 H   0  0  0  0  0  0  0  0  0  0  0  0
   34.7300   33.5250   25.5670 C   0  0  0  0  0  0  0  0  0  0  0  0
   35.0760   34.1310   24.1850 C   0  0  0  0  0  0  0  0  0  0  0  0
   33.8800   34.9630   23.6840 C   0  0  0  0  0  0  0  0  0  0  0  0
   32.6400   34.0840   23.4240 C   0  0  0  0  0  0  0  0  0  0  0  0
   32.5670   32.9230   24.4480 C   0  0  0  0  0  0  0  0  0  0  0  0
   35.0460   34.2480   26.3660 H   0  0  0  0  0  0  0  0  0  0  0  0
   35.2910   32.5630   25.6840 H   0  0  0  0  0  0  0  0  0  0  0  0
   35.3070   33.3120   23.4660 H   0  0  0  0  0  0  0  0  0  0  0  0
   35.9730   34.7800   24.2990 H   0  0  0  0  0  0  0  0  0  0  0  0
   33.6130   35.6990   24.5000 H   0  0  0  0  0  0  0  0  0  0  0  0
   31.7290   34.7230   23.5130 H   0  0  0  0  0  0  0  0  0  0  0  0
   32.6560   33.6380   22.4030 H   0  0  0  0  0  0  0  0  0  0  0  0
   31.4890   32.7010   24.6630 H   0  0  0  0  0  0  0  0  0  0  0  0
   33.0550   32.0110   24.0130 H   0  0  0  0  0  0  0  0  0  0  0  0
   33.2660   33.2860   25.7070 N   0  0  0  0  0  0  0  0  0  0  0  0
   32.5270   33.1800   27.2340 S   0  0  0  0  0  0  0  0  0  0  0  0
   33.1890   32.1460   28.0480 O   0  0  0  0  0  0  0  0  0  0  0  0
   31.0990   32.8720   27.0140 O   0  0  0  0  0  0  0  0  0  0  0  0
   32.7570   34.7480   27.9300 C   0  0  0  0  0  0  0  0  0  0  0  0
   32.5680   35.5720   27.1920 H   0  0  0  0  0  0  0  0  0  0  0  0
   32.0640   34.9360   28.7930 H   0  0  0  0  0  0  0  0  0  0  0  0
   33.7970   34.8980   28.3240 H   0  0  0  0  0  0  0  0  0  0  0  0
  1  3  2  0  0  0  0
  1  7  1  0  0  0  0
  1 21  1  0  0  0  0
  2 12  1  0  0  0  0
  2 17  2  0  0  0  0
  2 18  1  0  0  0  0
  3 13  1  0  0  0  0
  3 14  1  0  0  0  0
  4 16  2  0  0  0  0
  4 19  1  0  0  0  0
  4 20  1  0  0  0  0
  5  6  1  0  0  0  0
  5 10  1  0  0  0  0
  5 11  2  0  0  0  0
  6 12  2  0  0  0  0
  6 22  1  0  0  0  0
  7  8  2  0  0  0  0
  7 27  1  0  0  0  0
  8  9  1  0  0  0  0
  8 23  1  0  0  0  0
  9 13  2  0  0  0  0
  9 24  1  0  0  0  0
 10 18  1  0  0  0  0
 10 19  2  0  0  0  0
 11 16  1  0  0  0  0
 11 25  1  0  0  0  0
 12 15  1  0  0  0  0
 13 15  1  0  0  0  0
 18 45  1  0  0  0  0
 20 26  1  0  0  0  0
 20 30  1  0  0  0  0
 28 29  1  0  0  0  0
 28 33  1  0  0  0  0
 28 34  1  0  0  0  0
 28 35  1  0  0  0  0
 29 30  1  0  0  0  0
 29 36  1  0  0  0  0
 29 37  1  0  0  0  0
 30 31  1  0  0  0  0
 30 38  1  0  0  0  0
 31 32  1  0  0  0  0
 31 39  1  0  0  0  0
 31 40  1  0  0  0  0
 32 33  1  0  0  0  0
 32 41  1  0  0  0  0
 32 42  1  0  0  0  0
 43 44  1  0  0  0  0
 43 48  1  0  0  0  0
 43 49  1  0  0  0  0
 43 57  1  0  0  0  0
 44 45  1  0  0  0  0
 44 50  1  0  0  0  0
 44 51  1  0  0  0  0
 45 46  1  0  0  0  0
 45 52  1  0  0  0  0
 46 47  1  0  0  0  0
 46 53  1  0  0  0  0
 46 54  1  0  0  0  0
 47 55  1  0  0  0  0
 47 56  1  0  0  0  0
 47 57  1  0  0  0  0
 57 58  1  0  0  0  0
 58 59  2  0  0  0  0
 58 60  2  0  0  0  0
 58 61  1  0  0  0  0
 61 62  1  0  0  0  0
 61 63  1  0  0  0  0
 61 64  1  0  0  0  0
M  END
$$$$
