23485
                    3D
 Schrodinger Suite 2022-3.
 63 66  0  0  1  0  0  0  0  0999 V2000
   43.6790   13.6820   16.6870 S   0  0  0  0  0  0  0  0  0  0  0  0
   43.5880   15.1110   15.6710 C   0  0  0  0  0  0  0  0  0  0  0  0
   42.7070   14.8540   14.6590 C   0  0  0  0  0  0  0  0  0  0  0  0
   42.0890   13.5340   14.6770 C   0  0  0  0  0  0  0  0  0  0  0  0
   42.4920   12.7820   15.7580 C   0  0  0  0  0  0  0  0  0  0  0  0
   44.3930   16.3740   15.9920 C   0  0  0  0  0  0  0  0  0  0  0  0
   45.1670   16.2810   16.9690 O   0  0  0  0  0  0  0  0  0  0  0  0
   44.2300   17.3800   15.2970 O   0  5  0  0  0  0  0  0  0  0  0  0
   42.0490   11.4530   16.1190 C   0  0  0  0  0  0  0  0  0  0  0  0
   40.7430   11.0610   15.7830 C   0  0  0  0  0  0  0  0  0  0  0  0
   40.3020    9.7260   15.9240 C   0  0  0  0  0  0  0  0  0  0  0  0
   41.1450    8.7860   16.5270 C   0  0  0  0  0  0  0  0  0  0  0  0
   42.4120    9.2050   16.9660 C   0  0  0  0  0  0  0  0  0  0  0  0
   42.8790   10.4980   16.7560 C   0  0  0  0  0  0  0  0  0  0  0  0
   41.1890   13.0950   13.5820 C   0  0  0  0  0  0  0  0  0  0  0  0
   42.4860   15.7290   13.6270 O   0  0  0  0  0  0  0  0  0  0  0  0
   41.1860   16.3870   13.7170 C   0  0  0  0  0  0  0  0  0  0  0  0
   41.4020   17.6760   12.8760 C   0  0  0  0  0  0  0  0  0  0  0  0
   40.3690   18.3650   12.7140 O   0  5  0  0  0  0  0  0  0  0  0  0
   42.5250   17.9340   12.4280 O   0  0  0  0  0  0  0  0  0  0  0  0
   38.9490    9.4720   15.5120 N   0  0  0  0  0  0  0  0  0  0  0  0
   38.5000    8.1170   15.0880 C   0  0  0  0  0  0  0  0  0  0  0  0
   36.9610    8.2000   14.8980 C   0  0  0  0  0  0  0  0  0  0  0  0
   36.3850    6.8770   14.3630 C   0  0  0  0  0  0  0  0  0  0  0  0
   37.0510    6.4990   13.0770 N   0  0  1  0  0  0  0  0  0  0  0  0
   38.5260    6.3270   13.2720 C   0  0  0  0  0  0  0  0  0  0  0  0
   39.1410    7.6530   13.7540 C   0  0  0  0  0  0  0  0  0  0  0  0
   36.2340    5.3370   12.1310 S   0  0  0  0  0  0  0  0  0  0  0  0
   37.1150    4.9170   11.0450 O   0  0  0  0  0  0  0  0  0  0  0  0
   35.0220    5.9840   11.6100 O   0  0  0  0  0  0  0  0  0  0  0  0
   35.8600    3.9730   13.1840 C   0  0  0  0  0  0  0  0  0  0  0  0
   35.5380    2.7430   12.4000 C   0  0  0  0  0  0  0  0  0  0  0  0
   36.5610    2.0260   11.7530 C   0  0  0  0  0  0  0  0  0  0  0  0
   36.2530    0.8950   10.9940 C   0  0  0  0  0  0  0  0  0  0  0  0
   34.9300    0.4520   10.8950 C   0  0  0  0  0  0  0  0  0  0  0  0
   33.9180    1.1380   11.5700 C   0  0  0  0  0  0  0  0  0  0  0  0
   34.2160    2.2830   12.3150 C   0  0  0  0  0  0  0  0  0  0  0  0
   40.0340   11.7940   15.4060 H   0  0  0  0  0  0  0  0  0  0  0  0
   40.8410    7.7510   16.6580 H   0  0  0  0  0  0  0  0  0  0  0  0
   43.0470    8.4730   17.4700 H   0  0  0  0  0  0  0  0  0  0  0  0
   43.8900   10.7540   17.0750 H   0  0  0  0  0  0  0  0  0  0  0  0
   40.9180   16.6190   14.7680 H   0  0  0  0  0  0  0  0  0  0  0  0
   40.4250   15.7160   13.2660 H   0  0  0  0  0  0  0  0  0  0  0  0
   38.6290   10.1670   14.7960 H   0  0  0  0  0  0  0  0  0  0  0  0
   38.7330    7.3730   15.8910 H   0  0  0  0  0  0  0  0  0  0  0  0
   36.7150    9.0180   14.1800 H   0  0  0  0  0  0  0  0  0  0  0  0
   36.4790    8.4110   15.8820 H   0  0  0  0  0  0  0  0  0  0  0  0
   35.2880    7.0120   14.1840 H   0  0  0  0  0  0  0  0  0  0  0  0
   36.5350    6.0770   15.1430 H   0  0  0  0  0  0  0  0  0  0  0  0
   38.9950    6.0380   12.2970 H   0  0  0  0  0  0  0  0  0  0  0  0
   38.7350    5.5270   14.0360 H   0  0  0  0  0  0  0  0  0  0  0  0
   40.2340    7.4970   13.9030 H   0  0  0  0  0  0  0  0  0  0  0  0
   38.9660    8.4350   12.9840 H   0  0  0  0  0  0  0  0  0  0  0  0
   35.0170    4.2250   13.8900 H   0  0  0  0  0  0  0  0  0  0  0  0
   36.7290    3.7540   13.8750 H   0  0  0  0  0  0  0  0  0  0  0  0
   37.6050    2.3460   11.8440 H   0  0  0  0  0  0  0  0  0  0  0  0
   37.0470    0.3480   10.4780 H   0  0  0  0  0  0  0  0  0  0  0  0
   34.6840   -0.4260   10.2930 H   0  0  0  0  0  0  0  0  0  0  0  0
   32.8850    0.7840   11.5090 H   0  0  0  0  0  0  0  0  0  0  0  0
   33.4060    2.8060   12.8310 H   0  0  0  0  0  0  0  0  0  0  0  0
   41.2760   11.9890   13.4330 H   0  0  0  0  0  0  0  0  0  0  0  0
   40.1220   13.3050   13.8400 H   0  0  0  0  0  0  0  0  0  0  0  0
   41.4400   13.6060   12.6270 H   0  0  0  0  0  0  0  0  0  0  0  0
  1  2  1  0  0  0  0
  1  5  1  0  0  0  0
  2  3  2  0  0  0  0
  2  6  1  0  0  0  0
  3  4  1  0  0  0  0
  3 16  1  0  0  0  0
  4  5  2  0  0  0  0
  4 15  1  0  0  0  0
  5  9  1  0  0  0  0
  6  7  2  0  0  0  0
  6  8  1  0  0  0  0
  9 10  1  0  0  0  0
  9 14  2  0  0  0  0
 10 11  2  0  0  0  0
 10 38  1  0  0  0  0
 11 12  1  0  0  0  0
 11 21  1  0  0  0  0
 12 13  2  0  0  0  0
 12 39  1  0  0  0  0
 13 14  1  0  0  0  0
 13 40  1  0  0  0  0
 14 41  1  0  0  0  0
 15 61  1  0  0  0  0
 15 62  1  0  0  0  0
 15 63  1  0  0  0  0
 16 17  1  0  0  0  0
 17 18  1  0  0  0  0
 17 42  1  0  0  0  0
 17 43  1  0  0  0  0
 18 19  1  0  0  0  0
 18 20  2  0  0  0  0
 21 22  1  0  0  0  0
 21 44  1  0  0  0  0
 22 23  1  0  0  0  0
 22 27  1  0  0  0  0
 22 45  1  0  0  0  0
 23 24  1  0  0  0  0
 23 46  1  0  0  0  0
 23 47  1  0  0  0  0
 24 25  1  0  0  0  0
 24 48  1  0  0  0  0
 24 49  1  0  0  0  0
 25 26  1  0  0  0  0
 25 28  1  0  0  0  0
 26 27  1  0  0  0  0
 26 50  1  0  0  0  0
 26 51  1  0  0  0  0
 27 52  1  0  0  0  0
 27 53  1  0  0  0  0
 28 29  2  0  0  0  0
 28 30  2  0  0  0  0
 28 31  1  0  0  0  0
 31 32  1  0  0  0  0
 31 54  1  0  0  0  0
 31 55  1  0  0  0  0
 32 33  2  0  0  0  0
 32 37  1  0  0  0  0
 33 34  1  0  0  0  0
 33 56  1  0  0  0  0
 34 35  2  0  0  0  0
 34 57  1  0  0  0  0
 35 36  1  0  0  0  0
 35 58  1  0  0  0  0
 36 37  2  0  0  0  0
 36 59  1  0  0  0  0
 37 60  1  0  0  0  0
M  CHG  2   8  -1  19  -1
M  END
$$$$
