1a
                    3D
 Schrodinger Suite 2022-3.
 52 54  0  0  1  0  0  0  0  0999 V2000
   16.1000  -16.0180   22.9630 N   0  3  0  0  0  0  0  0  0  0  0  0
   17.4460  -15.2760   23.0620 C   0  0  1  0  0  0  0  0  0  0  0  0
   17.2350  -13.8370   22.5160 C   0  0  0  0  0  0  0  0  0  0  0  0
   16.2780  -13.1590   22.8840 O   0  0  0  0  0  0  0  0  0  0  0  0
   17.9070  -15.2650   24.5330 C   0  0  0  0  0  0  0  0  0  0  0  0
   19.3390  -14.8110   24.6820 C   0  0  0  0  0  0  0  0  0  0  0  0
   20.3860  -15.5900   24.1620 C   0  0  0  0  0  0  0  0  0  0  0  0
   19.6390  -13.6380   25.3840 C   0  0  0  0  0  0  0  0  0  0  0  0
   21.7110  -15.1840   24.3320 C   0  0  0  0  0  0  0  0  0  0  0  0
   20.9670  -13.2260   25.5440 C   0  0  0  0  0  0  0  0  0  0  0  0
   22.0060  -14.0000   25.0200 C   0  0  0  0  0  0  0  0  0  0  0  0
   18.1450  -13.3470   21.6180 N   0  0  0  0  0  0  0  0  0  0  0  0
   17.9770  -11.9920   21.0000 C   0  0  2  0  0  0  0  0  0  0  0  0
   16.5430  -11.8270   20.4290 C   0  0  0  0  0  0  0  0  0  0  0  0
   15.9920  -12.6890   19.7590 O   0  0  0  0  0  0  0  0  0  0  0  0
   19.0330  -11.9360   19.8750 C   0  0  0  0  0  0  0  0  0  0  0  0
   20.0530  -13.0530   20.1660 C   0  0  0  0  0  0  0  0  0  0  0  0
   19.3390  -14.0680   21.0760 C   0  0  0  0  0  0  0  0  0  0  0  0
   15.9780  -10.5740   20.6260 N   0  0  0  0  0  0  0  0  0  0  0  0
   14.5760  -10.2890   20.2260 C   0  0  0  0  0  0  0  0  0  0  0  0
   13.5870  -10.3750   21.3670 C   0  0  0  0  0  0  0  0  0  0  0  0
   13.4960   -9.3090   22.2750 C   0  0  0  0  0  0  0  0  0  0  0  0
   12.5050   -9.3620   23.2570 C   0  0  0  0  0  0  0  0  0  0  0  0
   11.6020  -10.4220   23.3710 C   0  0  0  0  0  0  0  0  0  0  0  0
   11.7300  -11.4840   22.4730 C   0  0  0  0  0  0  0  0  0  0  0  0
   12.7150  -11.4650   21.4770 C   0  0  0  0  0  0  0  0  0  0  0  0
   14.1820   -8.4690   22.2030 H   0  0  0  0  0  0  0  0  0  0  0  0
   12.4190   -8.3480   24.1200 F   0  0  0  0  0  0  0  0  0  0  0  0
   10.8080  -10.4370   24.1250 H   0  0  0  0  0  0  0  0  0  0  0  0
   11.0510  -12.3400   22.5450 H   0  0  0  0  0  0  0  0  0  0  0  0
   12.7880  -12.3070   20.7860 H   0  0  0  0  0  0  0  0  0  0  0  0
   18.8370  -13.0550   25.8280 H   0  0  0  0  0  0  0  0  0  0  0  0
   21.1700  -12.2960   26.0820 H   0  0  0  0  0  0  0  0  0  0  0  0
   22.5140  -15.8040   23.9230 H   0  0  0  0  0  0  0  0  0  0  0  0
   23.0480  -13.6940   25.1450 H   0  0  0  0  0  0  0  0  0  0  0  0
   20.1630  -16.5200   23.6320 H   0  0  0  0  0  0  0  0  0  0  0  0
   16.2050  -16.9870   23.3870 H   0  0  0  0  0  0  0  0  0  0  0  0
   15.3370  -15.4740   23.4830 H   0  0  0  0  0  0  0  0  0  0  0  0
   15.8220  -16.1390   21.9480 H   0  0  0  0  0  0  0  0  0  0  0  0
   18.1750  -15.8800   22.4480 H   0  0  0  0  0  0  0  0  0  0  0  0
   17.8420  -16.3150   24.9380 H   0  0  0  0  0  0  0  0  0  0  0  0
   17.2230  -14.6190   25.1400 H   0  0  0  0  0  0  0  0  0  0  0  0
   18.1990  -11.2250   21.7900 H   0  0  0  0  0  0  0  0  0  0  0  0
   19.5390  -10.9500   19.8770 H   0  0  0  0  0  0  0  0  0  0  0  0
   18.5640  -12.1200   18.8780 H   0  0  0  0  0  0  0  0  0  0  0  0
   20.9520  -12.6460   20.6840 H   0  0  0  0  0  0  0  0  0  0  0  0
   20.3850  -13.5510   19.2230 H   0  0  0  0  0  0  0  0  0  0  0  0
   19.0110  -14.9650   20.4890 H   0  0  0  0  0  0  0  0  0  0  0  0
   20.0050  -14.3890   21.9180 H   0  0  0  0  0  0  0  0  0  0  0  0
   16.3970   -9.9090   21.2990 H   0  0  0  0  0  0  0  0  0  0  0  0
   14.2810  -10.9970   19.3990 H   0  0  0  0  0  0  0  0  0  0  0  0
   14.5550   -9.2400   19.8150 H   0  0  0  0  0  0  0  0  0  0  0  0
  1  2  1  0  0  0  0
  1 37  1  0  0  0  0
  1 38  1  0  0  0  0
  1 39  1  0  0  0  0
  2  3  1  0  0  0  0
  2  5  1  0  0  0  0
  2 40  1  0  0  0  0
  3  4  2  0  0  0  0
  3 12  1  0  0  0  0
  5  6  1  0  0  0  0
  5 41  1  0  0  0  0
  5 42  1  0  0  0  0
  6  7  2  0  0  0  0
  6  8  1  0  0  0  0
  7  9  1  0  0  0  0
  7 36  1  0  0  0  0
  8 10  2  0  0  0  0
  8 32  1  0  0  0  0
  9 11  2  0  0  0  0
  9 34  1  0  0  0  0
 10 11  1  0  0  0  0
 10 33  1  0  0  0  0
 11 35  1  0  0  0  0
 12 13  1  0  0  0  0
 12 18  1  0  0  0  0
 13 14  1  0  0  0  0
 13 16  1  0  0  0  0
 13 43  1  0  0  0  0
 14 15  2  0  0  0  0
 14 19  1  0  0  0  0
 16 17  1  0  0  0  0
 16 44  1  0  0  0  0
 16 45  1  0  0  0  0
 17 18  1  0  0  0  0
 17 46  1  0  0  0  0
 17 47  1  0  0  0  0
 18 48  1  0  0  0  0
 18 49  1  0  0  0  0
 19 20  1  0  0  0  0
 19 50  1  0  0  0  0
 20 21  1  0  0  0  0
 20 51  1  0  0  0  0
 20 52  1  0  0  0  0
 21 22  2  0  0  0  0
 21 26  1  0  0  0  0
 22 23  1  0  0  0  0
 22 27  1  0  0  0  0
 23 24  2  0  0  0  0
 23 28  1  0  0  0  0
 24 25  1  0  0  0  0
 24 29  1  0  0  0  0
 25 26  2  0  0  0  0
 25 30  1  0  0  0  0
 26 31  1  0  0  0  0
M  CHG  1   1   1
M  END
$$$$
