6b
                    3D
 Schrodinger Suite 2022-3.
 55 57  0  0  1  0  0  0  0  0999 V2000
   16.0700  -16.0040   22.9590 N   0  3  0  0  0  0  0  0  0  0  0  0
   17.4140  -15.2570   23.0470 C   0  0  1  0  0  0  0  0  0  0  0  0
   17.1810  -13.8180   22.5150 C   0  0  0  0  0  0  0  0  0  0  0  0
   16.2110  -13.1610   22.8890 O   0  0  0  0  0  0  0  0  0  0  0  0
   17.8940  -15.2540   24.5120 C   0  0  0  0  0  0  0  0  0  0  0  0
   19.3300  -14.8070   24.6440 C   0  0  0  0  0  0  0  0  0  0  0  0
   20.3660  -15.5850   24.1040 C   0  0  0  0  0  0  0  0  0  0  0  0
   19.6450  -13.6410   25.3510 C   0  0  0  0  0  0  0  0  0  0  0  0
   21.6950  -15.1850   24.2560 C   0  0  0  0  0  0  0  0  0  0  0  0
   20.9760  -13.2330   25.4910 C   0  0  0  0  0  0  0  0  0  0  0  0
   22.0050  -14.0060   24.9460 C   0  0  0  0  0  0  0  0  0  0  0  0
   18.0790  -13.3010   21.6220 N   0  0  0  0  0  0  0  0  0  0  0  0
   17.8690  -11.9500   21.0090 C   0  0  2  0  0  0  0  0  0  0  0  0
   16.4350  -11.8430   20.4180 C   0  0  0  0  0  0  0  0  0  0  0  0
   15.9490  -12.7120   19.7070 O   0  0  0  0  0  0  0  0  0  0  0  0
   18.9440  -11.8420   19.9080 C   0  0  0  0  0  0  0  0  0  0  0  0
   19.9860  -12.9420   20.1860 C   0  0  0  0  0  0  0  0  0  0  0  0
   19.2890  -13.9880   21.0750 C   0  0  0  0  0  0  0  0  0  0  0  0
   15.7940  -10.6350   20.6500 N   0  0  0  0  0  0  0  0  0  0  0  0
   14.3650  -10.4340   20.2800 C   0  0  0  0  0  0  0  0  0  0  0  0
   13.4390  -10.3990   21.4740 C   0  0  0  0  0  0  0  0  0  0  0  0
   13.4790   -9.2610   22.2960 C   0  0  0  0  0  0  0  0  0  0  0  0
   12.6030   -9.1510   23.3740 C   0  0  0  0  0  0  0  0  0  0  0  0
   11.6340  -10.1260   23.6260 C   0  0  0  0  0  0  0  0  0  0  0  0
   11.6040  -11.2570   22.8120 C   0  0  0  0  0  0  0  0  0  0  0  0
   12.5180  -11.4290   21.7560 C   0  0  0  0  0  0  0  0  0  0  0  0
   14.2020   -8.4730   22.0870 H   0  0  0  0  0  0  0  0  0  0  0  0
   12.7650   -7.8170   24.4500 Cl  0  0  0  0  0  0  0  0  0  0  0  0
   10.9110  -10.0200   24.4410 H   0  0  0  0  0  0  0  0  0  0  0  0
   10.8560  -12.0340   23.0070 H   0  0  0  0  0  0  0  0  0  0  0  0
   12.4880  -12.7080   20.9840 C   0  0  0  0  0  0  0  0  0  0  0  0
   18.8510  -13.0590   25.8130 H   0  0  0  0  0  0  0  0  0  0  0  0
   21.1910  -12.3070   26.0320 H   0  0  0  0  0  0  0  0  0  0  0  0
   22.4900  -15.8060   23.8310 H   0  0  0  0  0  0  0  0  0  0  0  0
   23.0490  -13.7030   25.0570 H   0  0  0  0  0  0  0  0  0  0  0  0
   20.1330  -16.5110   23.5710 H   0  0  0  0  0  0  0  0  0  0  0  0
   16.1800  -16.9730   23.3830 H   0  0  0  0  0  0  0  0  0  0  0  0
   15.3110  -15.4600   23.4860 H   0  0  0  0  0  0  0  0  0  0  0  0
   15.7830  -16.1250   21.9470 H   0  0  0  0  0  0  0  0  0  0  0  0
   18.1390  -15.8500   22.4170 H   0  0  0  0  0  0  0  0  0  0  0  0
   17.8290  -16.3040   24.9150 H   0  0  0  0  0  0  0  0  0  0  0  0
   17.2200  -14.6060   25.1280 H   0  0  0  0  0  0  0  0  0  0  0  0
   18.0410  -11.1790   21.8080 H   0  0  0  0  0  0  0  0  0  0  0  0
   19.4260  -10.8450   19.9540 H   0  0  0  0  0  0  0  0  0  0  0  0
   18.4980  -12.0070   18.8980 H   0  0  0  0  0  0  0  0  0  0  0  0
   20.8740  -12.5270   20.7160 H   0  0  0  0  0  0  0  0  0  0  0  0
   20.3330  -13.4180   19.2370 H   0  0  0  0  0  0  0  0  0  0  0  0
   18.9830  -14.8820   20.4710 H   0  0  0  0  0  0  0  0  0  0  0  0
   19.9570  -14.3090   21.9150 H   0  0  0  0  0  0  0  0  0  0  0  0
   16.1880   -9.9540   21.3200 H   0  0  0  0  0  0  0  0  0  0  0  0
   14.0640  -11.2400   19.5560 H   0  0  0  0  0  0  0  0  0  0  0  0
   14.3010   -9.4410   19.7490 H   0  0  0  0  0  0  0  0  0  0  0  0
   13.4770  -13.2230   21.0540 H   0  0  0  0  0  0  0  0  0  0  0  0
   12.2490  -12.5360   19.9100 H   0  0  0  0  0  0  0  0  0  0  0  0
   11.7240  -13.4140   21.3980 H   0  0  0  0  0  0  0  0  0  0  0  0
  1  2  1  0  0  0  0
  1 37  1  0  0  0  0
  1 38  1  0  0  0  0
  1 39  1  0  0  0  0
  2  3  1  0  0  0  0
  2  5  1  0  0  0  0
  2 40  1  0  0  0  0
  3  4  2  0  0  0  0
  3 12  1  0  0  0  0
  5  6  1  0  0  0  0
  5 41  1  0  0  0  0
  5 42  1  0  0  0  0
  6  7  2  0  0  0  0
  6  8  1  0  0  0  0
  7  9  1  0  0  0  0
  7 36  1  0  0  0  0
  8 10  2  0  0  0  0
  8 32  1  0  0  0  0
  9 11  2  0  0  0  0
  9 34  1  0  0  0  0
 10 11  1  0  0  0  0
 10 33  1  0  0  0  0
 11 35  1  0  0  0  0
 12 13  1  0  0  0  0
 12 18  1  0  0  0  0
 13 14  1  0  0  0  0
 13 16  1  0  0  0  0
 13 43  1  0  0  0  0
 14 15  2  0  0  0  0
 14 19  1  0  0  0  0
 16 17  1  0  0  0  0
 16 44  1  0  0  0  0
 16 45  1  0  0  0  0
 17 18  1  0  0  0  0
 17 46  1  0  0  0  0
 17 47  1  0  0  0  0
 18 48  1  0  0  0  0
 18 49  1  0  0  0  0
 19 20  1  0  0  0  0
 19 50  1  0  0  0  0
 20 21  1  0  0  0  0
 20 51  1  0  0  0  0
 20 52  1  0  0  0  0
 21 22  2  0  0  0  0
 21 26  1  0  0  0  0
 22 23  1  0  0  0  0
 22 27  1  0  0  0  0
 23 24  2  0  0  0  0
 23 28  1  0  0  0  0
 24 25  1  0  0  0  0
 24 29  1  0  0  0  0
 25 26  2  0  0  0  0
 25 30  1  0  0  0  0
 26 31  1  0  0  0  0
 31 53  1  0  0  0  0
 31 54  1  0  0  0  0
 31 55  1  0  0  0  0
M  CHG  1   1   1
M  END
$$$$
