p38a_2i
 OpenBabel02232411163D
Structure written by MMmdl.
 48 51  0  0  0  0  0  0  0  0999 V2000
   32.5450   39.8220   27.2250 C   0  0  0  0  0  0  0  0  0  0  0  0
   32.4020   39.1310   28.5860 C   0  0  0  0  0  0  0  0  0  0  0  0
   34.6650   38.2910   28.5010 C   0  0  0  0  0  0  0  0  0  0  0  0
   34.9230   38.9440   27.1380 C   0  0  0  0  0  0  0  0  0  0  0  0
   38.2960   36.2910   17.6370 C   0  0  0  0  0  0  0  0  0  0  0  0
   33.6750   39.0200   29.2630 O   0  0  0  0  0  0  0  0  0  0  0  0
   34.4150   35.2690   21.1750 C   0  0  0  0  0  0  0  0  0  0  0  0
   37.1760   35.9420   18.3950 C   0  0  0  0  0  0  0  0  0  0  0  0
   34.0870   39.2540   23.9010 C   0  0  0  0  0  0  0  0  0  0  0  0
   33.5920   39.0790   26.3660 C   0  0  0  0  0  0  0  0  0  0  0  0
   34.4860   38.1230   21.4210 C   0  0  0  0  0  0  0  0  0  0  0  0
   34.6430   37.5000   20.1410 C   0  0  0  0  0  0  0  0  0  0  0  0
   38.1200   36.5330   16.2720 C   0  0  0  0  0  0  0  0  0  0  0  0
   36.8530   36.4130   15.6960 C   0  0  0  0  0  0  0  0  0  0  0  0
   35.7470   36.0700   16.4790 C   0  0  0  0  0  0  0  0  0  0  0  0
   34.3030   37.3140   22.5830 C   0  0  0  0  0  0  0  0  0  0  0  0
   34.4770   39.5330   21.6030 C   0  0  0  0  0  0  0  0  0  0  0  0
   34.5890   36.1500   20.0100 C   0  0  0  0  0  0  0  0  0  0  0  0
   35.8810   35.8350   17.8570 C   0  0  0  0  0  0  0  0  0  0  0  0
   34.1540   35.0940   23.6940 C   0  0  0  0  0  0  0  0  0  0  0  0
   37.3620   35.6950   19.6920 F   0  0  0  0  0  0  0  0  0  0  0  0
   34.6650   35.4780   18.6680 C   0  0  0  0  0  0  0  0  0  0  0  0
   34.2930   40.1110   22.7950 N   0  0  0  0  0  0  0  0  0  0  0  0
   34.3610   34.0530   21.1620 O   0  0  0  0  0  0  0  0  0  0  0  0
   34.3050   35.9230   22.4670 N   0  0  0  0  0  0  0  0  0  0  0  0
   34.1150   37.8750   23.8250 N   0  0  0  0  0  0  0  0  0  0  0  0
   33.7930   39.8490   25.1020 N   0  0  0  0  0  0  0  0  0  0  0  0
   31.5590   39.8220   26.7000 H   0  0  0  0  0  0  0  0  0  0  0  0
   32.8590   40.8830   27.3780 H   0  0  0  0  0  0  0  0  0  0  0  0
   31.8100   39.7550   29.2950 H   0  0  0  0  0  0  0  0  0  0  0  0
   31.9600   38.1130   28.4730 H   0  0  0  0  0  0  0  0  0  0  0  0
   34.3240   37.2370   28.3810 H   0  0  0  0  0  0  0  0  0  0  0  0
   35.5630   38.3570   29.1580 H   0  0  0  0  0  0  0  0  0  0  0  0
   35.3850   39.9500   27.2780 H   0  0  0  0  0  0  0  0  0  0  0  0
   35.6330   38.3080   26.5560 H   0  0  0  0  0  0  0  0  0  0  0  0
   39.2840   36.4090   18.0840 H   0  0  0  0  0  0  0  0  0  0  0  0
   33.2000   38.0530   26.1140 H   0  0  0  0  0  0  0  0  0  0  0  0
   34.8030   38.1460   19.2720 H   0  0  0  0  0  0  0  0  0  0  0  0
   36.7150   36.6070   14.6330 H   0  0  0  0  0  0  0  0  0  0  0  0
   34.7650   36.0010   16.0020 H   0  0  0  0  0  0  0  0  0  0  0  0
   34.6130   40.1970   20.7320 H   0  0  0  0  0  0  0  0  0  0  0  0
   34.9410   35.3700   24.4470 H   0  0  0  0  0  0  0  0  0  0  0  0
   33.1450   35.2670   24.1570 H   0  0  0  0  0  0  0  0  0  0  0  0
   34.2590   34.0070   23.4380 H   0  0  0  0  0  0  0  0  0  0  0  0
   33.8630   40.8800   25.2020 H   0  0  0  0  0  0  0  0  0  0  0  0
   38.9680   36.8360   15.6640 H   0  0  0  0  0  0  0  0  0  0  0  0
   34.6330   34.3620   18.7910 H   0  0  0  0  0  0  0  0  0  0  0  0
   33.7390   35.7730   18.0940 H   0  0  0  0  0  0  0  0  0  0  0  0
  1  2  1  0  0  0  0
  1 10  1  0  0  0  0
  1 28  1  0  0  0  0
  1 29  1  0  0  0  0
  2  6  1  0  0  0  0
  2 30  1  0  0  0  0
  2 31  1  0  0  0  0
  3  4  1  0  0  0  0
  3  6  1  0  0  0  0
  3 32  1  0  0  0  0
  3 33  1  0  0  0  0
  4 10  1  0  0  0  0
  4 34  1  0  0  0  0
  4 35  1  0  0  0  0
  5  8  2  0  0  0  0
  5 13  1  0  0  0  0
  5 36  1  0  0  0  0
  7 18  1  0  0  0  0
  7 24  2  0  0  0  0
  7 25  1  0  0  0  0
  8 19  1  0  0  0  0
  8 21  1  0  0  0  0
  9 23  2  0  0  0  0
  9 26  1  0  0  0  0
  9 27  1  0  0  0  0
 10 27  1  0  0  0  0
 10 37  1  0  0  0  0
 11 12  1  0  0  0  0
 11 16  1  0  0  0  0
 11 17  2  0  0  0  0
 12 18  2  0  0  0  0
 12 38  1  0  0  0  0
 13 14  2  0  0  0  0
 13 46  1  0  0  0  0
 14 15  1  0  0  0  0
 14 39  1  0  0  0  0
 15 19  2  0  0  0  0
 15 40  1  0  0  0  0
 16 25  1  0  0  0  0
 16 26  2  0  0  0  0
 17 23  1  0  0  0  0
 17 41  1  0  0  0  0
 18 22  1  0  0  0  0
 19 22  1  0  0  0  0
 20 25  1  0  0  0  0
 20 42  1  0  0  0  0
 20 43  1  0  0  0  0
 20 44  1  0  0  0  0
 22 47  1  0  0  0  0
 22 48  1  0  0  0  0
 27 45  1  0  0  0  0
M  END
$$$$
