2i
                    3D
 Schrodinger Suite 2022-3.
 48 51  0  0  1  0  0  0  0  0999 V2000
   27.1160    8.8690   30.4780 C   0  0  0  0  0  0  0  0  0  0  0  0
   28.4730    9.4610   30.8770 C   0  0  0  0  0  0  0  0  0  0  0  0
   28.5400    8.1530   32.9110 C   0  0  0  0  0  0  0  0  0  0  0  0
   27.1990    7.4830   32.5910 C   0  0  0  0  0  0  0  0  0  0  0  0
   15.9160   10.4050   31.8350 C   0  0  0  0  0  0  0  0  0  0  0  0
   29.2340    8.5570   31.7100 O   0  0  0  0  0  0  0  0  0  0  0  0
   21.3580   12.5240   31.2880 C   0  0  0  0  0  0  0  0  0  0  0  0
   17.1760   11.0050   31.8060 C   0  0  0  0  0  0  0  0  0  0  0  0
   23.9120    8.4290   31.0880 C   0  0  0  0  0  0  0  0  0  0  0  0
   26.3380    8.4440   31.7440 C   0  0  0  0  0  0  0  0  0  0  0  0
   21.5010    9.7190   30.7290 C   0  0  0  0  0  0  0  0  0  0  0  0
   20.2550   10.4200   30.6100 C   0  0  0  0  0  0  0  0  0  0  0  0
   15.0760   10.5660   30.7290 C   0  0  0  0  0  0  0  0  0  0  0  0
   15.5130   11.3040   29.6270 C   0  0  0  0  0  0  0  0  0  0  0  0
   16.7690   11.9190   29.6330 C   0  0  0  0  0  0  0  0  0  0  0  0
   22.6560   10.4150   31.1980 C   0  0  0  0  0  0  0  0  0  0  0  0
   21.6700    8.3470   30.3980 C   0  0  0  0  0  0  0  0  0  0  0  0
   20.1720   11.7440   30.8900 C   0  0  0  0  0  0  0  0  0  0  0  0
   17.6260   11.8000   30.7370 C   0  0  0  0  0  0  0  0  0  0  0  0
   23.8010   12.4870   31.9690 C   0  0  0  0  0  0  0  0  0  0  0  0
   17.9830   10.8080   32.8500 F   0  0  0  0  0  0  0  0  0  0  0  0
   18.9180   12.5650   30.7790 C   0  0  0  0  0  0  0  0  0  0  0  0
   22.8280    7.6920   30.5610 N   0  0  0  0  0  0  0  0  0  0  0  0
   21.4060   13.7270   31.4760 O   0  0  0  0  0  0  0  0  0  0  0  0
   22.5830   11.7790   31.4830 N   0  0  0  0  0  0  0  0  0  0  0  0
   23.8610    9.7780   31.3670 N   0  0  0  0  0  0  0  0  0  0  0  0
   25.0680    7.7420   31.3840 N   0  0  0  0  0  0  0  0  0  0  0  0
   14.8780   11.3990   28.7460 H   0  0  0  0  0  0  0  0  0  0  0  0
   17.0780   12.4960   28.7580 H   0  0  0  0  0  0  0  0  0  0  0  0
   15.6020    9.8010   32.6830 H   0  0  0  0  0  0  0  0  0  0  0  0
   19.3790    9.8540   30.2770 H   0  0  0  0  0  0  0  0  0  0  0  0
   20.8250    7.7760   29.9770 H   0  0  0  0  0  0  0  0  0  0  0  0
   27.2660    7.9800   29.8240 H   0  0  0  0  0  0  0  0  0  0  0  0
   26.5390    9.6360   29.9110 H   0  0  0  0  0  0  0  0  0  0  0  0
   28.3440   10.4260   31.4200 H   0  0  0  0  0  0  0  0  0  0  0  0
   29.1430    9.5790   29.9950 H   0  0  0  0  0  0  0  0  0  0  0  0
   29.2540    7.4270   33.3660 H   0  0  0  0  0  0  0  0  0  0  0  0
   28.3950    9.0450   33.5630 H   0  0  0  0  0  0  0  0  0  0  0  0
   26.6710    7.2300   33.5420 H   0  0  0  0  0  0  0  0  0  0  0  0
   27.3770    6.5320   32.0300 H   0  0  0  0  0  0  0  0  0  0  0  0
   26.0870    9.3550   32.3570 H   0  0  0  0  0  0  0  0  0  0  0  0
   23.5410   13.5400   32.2570 H   0  0  0  0  0  0  0  0  0  0  0  0
   24.2260   11.9540   32.8610 H   0  0  0  0  0  0  0  0  0  0  0  0
   24.5820   12.5090   31.1620 H   0  0  0  0  0  0  0  0  0  0  0  0
   25.1850    6.7700   31.0350 H   0  0  0  0  0  0  0  0  0  0  0  0
   14.0900   10.1030   30.7170 H   0  0  0  0  0  0  0  0  0  0  0  0
   19.0090   13.1910   29.8450 H   0  0  0  0  0  0  0  0  0  0  0  0
   18.8690   13.2640   31.6580 H   0  0  0  0  0  0  0  0  0  0  0  0
  1  2  1  0  0  0  0
  1 10  1  0  0  0  0
  1 33  1  0  0  0  0
  1 34  1  0  0  0  0
  2  6  1  0  0  0  0
  2 35  1  0  0  0  0
  2 36  1  0  0  0  0
  3  4  1  0  0  0  0
  3  6  1  0  0  0  0
  3 37  1  0  0  0  0
  3 38  1  0  0  0  0
  4 10  1  0  0  0  0
  4 39  1  0  0  0  0
  4 40  1  0  0  0  0
  5  8  1  0  0  0  0
  5 13  2  0  0  0  0
  5 30  1  0  0  0  0
  7 18  1  0  0  0  0
  7 24  2  0  0  0  0
  7 25  1  0  0  0  0
  8 19  2  0  0  0  0
  8 21  1  0  0  0  0
  9 23  1  0  0  0  0
  9 26  2  0  0  0  0
  9 27  1  0  0  0  0
 10 27  1  0  0  0  0
 10 41  1  0  0  0  0
 11 12  1  0  0  0  0
 11 16  2  0  0  0  0
 11 17  1  0  0  0  0
 12 18  2  0  0  0  0
 12 31  1  0  0  0  0
 13 14  1  0  0  0  0
 13 46  1  0  0  0  0
 14 15  2  0  0  0  0
 14 28  1  0  0  0  0
 15 19  1  0  0  0  0
 15 29  1  0  0  0  0
 16 25  1  0  0  0  0
 16 26  1  0  0  0  0
 17 23  2  0  0  0  0
 17 32  1  0  0  0  0
 18 22  1  0  0  0  0
 19 22  1  0  0  0  0
 20 25  1  0  0  0  0
 20 42  1  0  0  0  0
 20 43  1  0  0  0  0
 20 44  1  0  0  0  0
 22 47  1  0  0  0  0
 22 48  1  0  0  0  0
 27 45  1  0  0  0  0
M  END
$$$$
