33
                    3D
 Schrodinger Suite 2022-3.
 38 40  0  0  1  0  0  0  0  0999 V2000
    3.5040  -48.4840    7.1970 O   0  0  0  0  0  0  0  0  0  0  0  0
    3.0830  -49.3550    6.4250 C   0  0  0  0  0  0  0  0  0  0  0  0
    3.7610  -50.0990    5.6920 O   0  5  0  0  0  0  0  0  0  0  0  0
    1.5610  -49.5990    6.3680 C   0  0  0  0  0  0  0  0  0  0  0  0
   -0.3370  -50.8670    6.5390 C   0  0  0  0  0  0  0  0  0  0  0  0
   -1.2860  -51.8790    6.7600 C   0  0  0  0  0  0  0  0  0  0  0  0
   -2.6130  -51.5810    6.4850 C   0  0  0  0  0  0  0  0  0  0  0  0
   -2.9930  -50.3080    5.9980 C   0  0  0  0  0  0  0  0  0  0  0  0
   -2.0600  -49.3040    5.7790 C   0  0  0  0  0  0  0  0  0  0  0  0
   -0.7060  -49.5600    6.0510 C   0  0  0  0  0  0  0  0  0  0  0  0
    0.5110  -48.7810    5.9660 C   0  0  0  0  0  0  0  0  0  0  0  0
    0.5590  -47.3590    5.5340 C   0  0  0  0  0  0  0  0  0  0  0  0
    0.5210  -46.3780    6.7210 C   0  0  0  0  0  0  0  0  0  0  0  0
   -0.8150  -46.3780    7.4610 C   0  0  0  0  0  0  0  0  0  0  0  0
   -1.7270  -45.7140    6.5070 O   0  0  0  0  0  0  0  0  0  0  0  0
   -3.0060  -45.4720    6.8940 C   0  0  0  0  0  0  0  0  0  0  0  0
   -3.7340  -44.6820    5.9690 C   0  0  0  0  0  0  0  0  0  0  0  0
   -5.0550  -44.3550    6.2430 C   0  0  0  0  0  0  0  0  0  0  0  0
   -5.6350  -44.8270    7.4280 C   0  0  0  0  0  0  0  0  0  0  0  0
   -4.9320  -45.6060    8.3460 C   0  0  0  0  0  0  0  0  0  0  0  0
   -3.6010  -45.9340    8.0830 C   0  0  0  0  0  0  0  0  0  0  0  0
   -0.9990  -52.8600    7.1370 H   0  0  0  0  0  0  0  0  0  0  0  0
   -3.3840  -52.3350    6.6460 H   0  0  0  0  0  0  0  0  0  0  0  0
   -4.0490  -50.1230    5.7950 H   0  0  0  0  0  0  0  0  0  0  0  0
   -2.3820  -48.3320    5.4030 H   0  0  0  0  0  0  0  0  0  0  0  0
   -0.3290  -47.1460    4.8820 H   0  0  0  0  0  0  0  0  0  0  0  0
    1.4840  -47.1550    4.9440 H   0  0  0  0  0  0  0  0  0  0  0  0
    0.6990  -45.3440    6.3430 H   0  0  0  0  0  0  0  0  0  0  0  0
    1.3190  -46.6550    7.4520 H   0  0  0  0  0  0  0  0  0  0  0  0
   -0.7910  -45.7490    8.3750 H   0  0  0  0  0  0  0  0  0  0  0  0
   -1.2150  -47.3990    7.6380 H   0  0  0  0  0  0  0  0  0  0  0  0
   -3.2620  -44.3410    5.0510 H   0  0  0  0  0  0  0  0  0  0  0  0
   -3.0680  -46.5590    8.7960 H   0  0  0  0  0  0  0  0  0  0  0  0
    1.0550  -50.8630    6.7270 N   0  0  0  0  0  0  0  0  0  0  0  0
    1.5770  -51.6700    7.0500 H   0  0  0  0  0  0  0  0  0  0  0  0
   -5.4190  -45.9640    9.2570 H   0  0  0  0  0  0  0  0  0  0  0  0
   -7.2950  -44.4590    7.7440 Cl  0  0  0  0  0  0  0  0  0  0  0  0
   -5.6340  -43.7490    5.5430 H   0  0  0  0  0  0  0  0  0  0  0  0
  1  2  2  0  0  0  0
  2  3  1  0  0  0  0
  2  4  1  0  0  0  0
  4 11  2  0  0  0  0
  4 34  1  0  0  0  0
  5  6  1  0  0  0  0
  5 10  2  0  0  0  0
  5 34  1  0  0  0  0
  6  7  2  0  0  0  0
  6 22  1  0  0  0  0
  7  8  1  0  0  0  0
  7 23  1  0  0  0  0
  8  9  2  0  0  0  0
  8 24  1  0  0  0  0
  9 10  1  0  0  0  0
  9 25  1  0  0  0  0
 10 11  1  0  0  0  0
 11 12  1  0  0  0  0
 12 26  1  0  0  0  0
 12 27  1  0  0  0  0
 12 13  1  0  0  0  0
 13 14  1  0  0  0  0
 13 28  1  0  0  0  0
 13 29  1  0  0  0  0
 14 15  1  0  0  0  0
 14 30  1  0  0  0  0
 14 31  1  0  0  0  0
 15 16  1  0  0  0  0
 16 17  1  0  0  0  0
 16 21  2  0  0  0  0
 17 18  2  0  0  0  0
 17 32  1  0  0  0  0
 18 19  1  0  0  0  0
 18 38  1  0  0  0  0
 19 20  2  0  0  0  0
 19 37  1  0  0  0  0
 20 21  1  0  0  0  0
 20 36  1  0  0  0  0
 21 33  1  0  0  0  0
 34 35  1  0  0  0  0
M  CHG  1   3  -1
M  END
$$$$
