p38a_2m
 OpenBabel02232411163D
Structure written by MMmdl.
 50 54  0  0  0  0  0  0  0  0999 V2000
   38.2840   36.5560   17.1370 C   0  0  0  0  0  0  0  0  0  0  0  0
   34.6390   35.1100   21.2070 C   0  0  0  0  0  0  0  0  0  0  0  0
   37.4820   36.1000   18.1800 C   0  0  0  0  0  0  0  0  0  0  0  0
   34.0730   39.1770   23.7720 C   0  0  0  0  0  0  0  0  0  0  0  0
   34.6760   37.9700   21.3710 C   0  0  0  0  0  0  0  0  0  0  0  0
   35.0250   37.3370   20.1300 C   0  0  0  0  0  0  0  0  0  0  0  0
   37.6540   36.7290   15.8970 C   0  0  0  0  0  0  0  0  0  0  0  0
   36.3060   36.4430   15.6700 C   0  0  0  0  0  0  0  0  0  0  0  0
   35.5240   35.9730   16.7310 C   0  0  0  0  0  0  0  0  0  0  0  0
   34.4230   37.1910   22.5430 C   0  0  0  0  0  0  0  0  0  0  0  0
   34.5900   39.3840   21.4980 C   0  0  0  0  0  0  0  0  0  0  0  0
   35.0360   35.9860   20.0780 C   0  0  0  0  0  0  0  0  0  0  0  0
   36.1170   35.7960   17.9830 C   0  0  0  0  0  0  0  0  0  0  0  0
   37.9970   35.9500   19.3930 F   0  0  0  0  0  0  0  0  0  0  0  0
   35.3690   35.1770   18.9920 O   0  0  0  0  0  0  0  0  0  0  0  0
   34.3040   40.0010   22.6520 N   0  0  0  0  0  0  0  0  0  0  0  0
   34.4730   33.9120   21.1310 O   0  0  0  0  0  0  0  0  0  0  0  0
   34.4510   35.7820   22.4780 N   0  0  0  0  0  0  0  0  0  0  0  0
   34.1380   37.7980   23.7370 N   0  0  0  0  0  0  0  0  0  0  0  0
   33.6960   39.7950   24.9420 N   0  0  0  0  0  0  0  0  0  0  0  0
   39.3380   36.8030   17.2860 H   0  0  0  0  0  0  0  0  0  0  0  0
   35.2770   37.9680   19.2760 H   0  0  0  0  0  0  0  0  0  0  0  0
   35.8500   36.5970   14.6900 H   0  0  0  0  0  0  0  0  0  0  0  0
   34.4610   35.7640   16.5750 H   0  0  0  0  0  0  0  0  0  0  0  0
   34.7610   40.0250   20.6160 H   0  0  0  0  0  0  0  0  0  0  0  0
   33.7590   40.8300   25.0180 H   0  0  0  0  0  0  0  0  0  0  0  0
   38.3680   37.2300   14.8920 F   0  0  0  0  0  0  0  0  0  0  0  0
   32.4080   39.0400   28.4560 C   0  0  0  0  0  0  0  0  0  0  0  0
   32.4510   39.6860   27.0650 C   0  0  0  0  0  0  0  0  0  0  0  0
   33.6070   39.0720   26.2460 C   0  0  0  0  0  0  0  0  0  0  0  0
   34.9370   39.1980   27.0220 C   0  0  0  0  0  0  0  0  0  0  0  0
   34.7800   38.5810   28.4180 C   0  0  0  0  0  0  0  0  0  0  0  0
   33.6740   39.1680   29.1420 O   0  0  0  0  0  0  0  0  0  0  0  0
   32.1420   37.9590   28.3850 H   0  0  0  0  0  0  0  0  0  0  0  0
   31.7140   39.5870   29.1340 H   0  0  0  0  0  0  0  0  0  0  0  0
   32.6020   40.7860   27.1670 H   0  0  0  0  0  0  0  0  0  0  0  0
   31.4810   39.5100   26.5400 H   0  0  0  0  0  0  0  0  0  0  0  0
   33.3850   37.9860   26.0540 H   0  0  0  0  0  0  0  0  0  0  0  0
   35.7480   38.6630   26.4750 H   0  0  0  0  0  0  0  0  0  0  0  0
   35.2210   40.2740   27.1110 H   0  0  0  0  0  0  0  0  0  0  0  0
   34.6220   37.4800   28.3500 H   0  0  0  0  0  0  0  0  0  0  0  0
   35.6490   38.8320   29.0700 H   0  0  0  0  0  0  0  0  0  0  0  0
   34.3050   34.8940   23.6490 C   0  0  0  0  0  0  0  0  0  0  0  0
   33.3010   35.1240   24.7660 C   0  0  0  0  0  0  0  0  0  0  0  0
   34.7930   35.2450   25.0450 C   0  0  0  0  0  0  0  0  0  0  0  0
   34.4520   33.8340   23.3370 H   0  0  0  0  0  0  0  0  0  0  0  0
   32.6780   36.0270   24.7990 H   0  0  0  0  0  0  0  0  0  0  0  0
   32.7600   34.2490   25.1590 H   0  0  0  0  0  0  0  0  0  0  0  0
   35.2100   36.2330   25.2760 H   0  0  0  0  0  0  0  0  0  0  0  0
   35.2850   34.4540   25.6300 H   0  0  0  0  0  0  0  0  0  0  0  0
  1  3  2  0  0  0  0
  1  7  1  0  0  0  0
  1 21  1  0  0  0  0
  2 12  1  0  0  0  0
  2 17  2  0  0  0  0
  2 18  1  0  0  0  0
  3 13  1  0  0  0  0
  3 14  1  0  0  0  0
  4 16  2  0  0  0  0
  4 19  1  0  0  0  0
  4 20  1  0  0  0  0
  5  6  1  0  0  0  0
  5 10  1  0  0  0  0
  5 11  2  0  0  0  0
  6 12  2  0  0  0  0
  6 22  1  0  0  0  0
  7  8  2  0  0  0  0
  7 27  1  0  0  0  0
  8  9  1  0  0  0  0
  8 23  1  0  0  0  0
  9 13  2  0  0  0  0
  9 24  1  0  0  0  0
 10 18  1  0  0  0  0
 10 19  2  0  0  0  0
 11 16  1  0  0  0  0
 11 25  1  0  0  0  0
 12 15  1  0  0  0  0
 13 15  1  0  0  0  0
 18 43  1  0  0  0  0
 20 26  1  0  0  0  0
 20 30  1  0  0  0  0
 28 29  1  0  0  0  0
 28 33  1  0  0  0  0
 28 34  1  0  0  0  0
 28 35  1  0  0  0  0
 29 30  1  0  0  0  0
 29 36  1  0  0  0  0
 29 37  1  0  0  0  0
 30 31  1  0  0  0  0
 30 38  1  0  0  0  0
 31 32  1  0  0  0  0
 31 39  1  0  0  0  0
 31 40  1  0  0  0  0
 32 33  1  0  0  0  0
 32 41  1  0  0  0  0
 32 42  1  0  0  0  0
 43 44  1  0  0  0  0
 43 45  1  0  0  0  0
 43 46  1  0  0  0  0
 44 45  1  0  0  0  0
 44 47  1  0  0  0  0
 44 48  1  0  0  0  0
 45 49  1  0  0  0  0
 45 50  1  0  0  0  0
M  END
$$$$
