p38a_2z
 OpenBabel02232411163D
Structure written by MMmdl.
 45 47  0  0  0  0  0  0  0  0999 V2000
   36.3920   36.1130   15.7230 C   0  0  0  0  0  0  0  0  0  0  0  0
   34.5020   34.9400   21.1170 C   0  0  0  0  0  0  0  0  0  0  0  0
   35.7870   35.6050   16.8680 C   0  0  0  0  0  0  0  0  0  0  0  0
   33.8170   38.9220   23.7850 C   0  0  0  0  0  0  0  0  0  0  0  0
   32.6680   38.8600   26.0780 C   0  0  0  0  0  0  0  0  0  0  0  0
   34.7590   37.7910   21.4440 C   0  0  0  0  0  0  0  0  0  0  0  0
   35.3300   37.1610   20.2840 C   0  0  0  0  0  0  0  0  0  0  0  0
   37.6800   36.6400   15.8800 C   0  0  0  0  0  0  0  0  0  0  0  0
   38.3650   36.6500   17.0980 C   0  0  0  0  0  0  0  0  0  0  0  0
   37.7200   36.1690   18.2430 C   0  0  0  0  0  0  0  0  0  0  0  0
   34.1380   37.0020   22.4570 C   0  0  0  0  0  0  0  0  0  0  0  0
   34.7980   39.1940   21.6660 C   0  0  0  0  0  0  0  0  0  0  0  0
   35.2350   35.8170   20.1620 C   0  0  0  0  0  0  0  0  0  0  0  0
   36.4310   35.6460   18.1210 C   0  0  0  0  0  0  0  0  0  0  0  0
   33.3050   34.8180   23.3330 C   0  0  0  0  0  0  0  0  0  0  0  0
   34.5830   35.0530   16.8050 F   0  0  0  0  0  0  0  0  0  0  0  0
   35.7650   34.9980   19.1690 O   0  0  0  0  0  0  0  0  0  0  0  0
   34.3480   39.7710   22.7900 N   0  0  0  0  0  0  0  0  0  0  0  0
   34.3180   33.7510   20.9710 O   0  0  0  0  0  0  0  0  0  0  0  0
   33.9940   35.6150   22.2800 N   0  0  0  0  0  0  0  0  0  0  0  0
   33.6670   37.5600   23.6200 N   0  0  0  0  0  0  0  0  0  0  0  0
   33.4980   39.5040   24.9920 N   0  0  0  0  0  0  0  0  0  0  0  0
   35.8830   36.1210   14.7570 H   0  0  0  0  0  0  0  0  0  0  0  0
   31.2680   38.5180   25.5440 C   0  0  0  0  0  0  0  0  0  0  0  0
   35.8330   37.7930   19.5490 H   0  0  0  0  0  0  0  0  0  0  0  0
   39.3790   37.0530   17.1720 H   0  0  0  0  0  0  0  0  0  0  0  0
   38.2210   36.2290   19.2120 H   0  0  0  0  0  0  0  0  0  0  0  0
   35.2070   39.8600   20.8880 H   0  0  0  0  0  0  0  0  0  0  0  0
   33.9090   34.8340   24.2800 H   0  0  0  0  0  0  0  0  0  0  0  0
   32.2930   35.2560   23.5450 H   0  0  0  0  0  0  0  0  0  0  0  0
   33.1790   33.7560   22.9970 H   0  0  0  0  0  0  0  0  0  0  0  0
   33.5660   40.5440   25.0590 H   0  0  0  0  0  0  0  0  0  0  0  0
   38.2630   37.1900   14.8170 F   0  0  0  0  0  0  0  0  0  0  0  0
   33.4120   37.5870   26.5960 C   0  0  0  0  0  0  0  0  0  0  0  0
   32.5710   39.8920   27.2150 C   0  0  0  0  0  0  0  0  0  0  0  0
   32.8640   37.1610   27.8540 O   0  0  0  0  0  0  0  0  0  0  0  0
   31.9580   36.7860   27.7070 H   0  0  0  0  0  0  0  0  0  0  0  0
   33.3410   36.7450   25.8710 H   0  0  0  0  0  0  0  0  0  0  0  0
   34.4700   37.8250   26.8510 H   0  0  0  0  0  0  0  0  0  0  0  0
   32.0670   39.4300   28.0940 H   0  0  0  0  0  0  0  0  0  0  0  0
   33.5820   40.2340   27.5370 H   0  0  0  0  0  0  0  0  0  0  0  0
   31.9900   40.7750   26.8830 H   0  0  0  0  0  0  0  0  0  0  0  0
   30.6140   38.2000   26.3860 H   0  0  0  0  0  0  0  0  0  0  0  0
   30.8010   39.4090   25.0680 H   0  0  0  0  0  0  0  0  0  0  0  0
   31.3090   37.6930   24.7980 H   0  0  0  0  0  0  0  0  0  0  0  0
  1  3  2  0  0  0  0
  1  8  1  0  0  0  0
  1 23  1  0  0  0  0
  2 13  1  0  0  0  0
  2 19  2  0  0  0  0
  2 20  1  0  0  0  0
  3 14  1  0  0  0  0
  3 16  1  0  0  0  0
  4 18  2  0  0  0  0
  4 21  1  0  0  0  0
  4 22  1  0  0  0  0
  5 22  1  0  0  0  0
  5 24  1  0  0  0  0
  5 34  1  0  0  0  0
  5 35  1  0  0  0  0
  6  7  1  0  0  0  0
  6 11  1  0  0  0  0
  6 12  2  0  0  0  0
  7 13  2  0  0  0  0
  7 25  1  0  0  0  0
  8  9  2  0  0  0  0
  8 33  1  0  0  0  0
  9 10  1  0  0  0  0
  9 26  1  0  0  0  0
 10 14  2  0  0  0  0
 10 27  1  0  0  0  0
 11 20  1  0  0  0  0
 11 21  2  0  0  0  0
 12 18  1  0  0  0  0
 12 28  1  0  0  0  0
 13 17  1  0  0  0  0
 14 17  1  0  0  0  0
 15 20  1  0  0  0  0
 15 29  1  0  0  0  0
 15 30  1  0  0  0  0
 15 31  1  0  0  0  0
 22 32  1  0  0  0  0
 24 43  1  0  0  0  0
 24 44  1  0  0  0  0
 24 45  1  0  0  0  0
 34 36  1  0  0  0  0
 34 38  1  0  0  0  0
 34 39  1  0  0  0  0
 35 40  1  0  0  0  0
 35 41  1  0  0  0  0
 35 42  1  0  0  0  0
 36 37  1  0  0  0  0
M  END
$$$$
