p38a_2y
 OpenBabel02232411163D
Structure written by MMmdl.
 45 47  0  0  0  0  0  0  0  0999 V2000
   36.3840   36.0820   15.7590 C   0  0  0  0  0  0  0  0  0  0  0  0
   34.4140   34.9700   21.1440 C   0  0  0  0  0  0  0  0  0  0  0  0
   35.7580   35.5780   16.8950 C   0  0  0  0  0  0  0  0  0  0  0  0
   33.6520   39.0380   23.6530 C   0  0  0  0  0  0  0  0  0  0  0  0
   32.5630   38.9930   25.9160 C   0  0  0  0  0  0  0  0  0  0  0  0
   34.6850   37.8270   21.4010 C   0  0  0  0  0  0  0  0  0  0  0  0
   35.2760   37.1610   20.2720 C   0  0  0  0  0  0  0  0  0  0  0  0
   37.6740   36.5990   15.9350 C   0  0  0  0  0  0  0  0  0  0  0  0
   38.3430   36.6010   17.1620 C   0  0  0  0  0  0  0  0  0  0  0  0
   37.6770   36.1250   18.2970 C   0  0  0  0  0  0  0  0  0  0  0  0
   34.0100   37.0740   22.4070 C   0  0  0  0  0  0  0  0  0  0  0  0
   34.7620   39.2320   21.5960 C   0  0  0  0  0  0  0  0  0  0  0  0
   35.1660   35.8160   20.1780 C   0  0  0  0  0  0  0  0  0  0  0  0
   36.3850   35.6110   18.1580 C   0  0  0  0  0  0  0  0  0  0  0  0
   33.1530   34.9220   23.3300 C   0  0  0  0  0  0  0  0  0  0  0  0
   34.5490   35.0380   16.8150 F   0  0  0  0  0  0  0  0  0  0  0  0
   35.6980   34.9770   19.2010 O   0  0  0  0  0  0  0  0  0  0  0  0
   34.2810   39.8480   22.6850 N   0  0  0  0  0  0  0  0  0  0  0  0
   34.2380   33.7750   21.0370 O   0  0  0  0  0  0  0  0  0  0  0  0
   33.8700   35.6820   22.2690 N   0  0  0  0  0  0  0  0  0  0  0  0
   33.4920   37.6720   23.5300 N   0  0  0  0  0  0  0  0  0  0  0  0
   33.1040   39.6960   24.7340 N   0  0  0  0  0  0  0  0  0  0  0  0
   35.8880   36.0950   14.7860 H   0  0  0  0  0  0  0  0  0  0  0  0
   32.0830   38.0260   25.6040 H   0  0  0  0  0  0  0  0  0  0  0  0
   35.8040   37.7710   19.5360 H   0  0  0  0  0  0  0  0  0  0  0  0
   39.3570   36.9970   17.2480 H   0  0  0  0  0  0  0  0  0  0  0  0
   38.1640   36.1790   19.2740 H   0  0  0  0  0  0  0  0  0  0  0  0
   35.2390   39.8640   20.8300 H   0  0  0  0  0  0  0  0  0  0  0  0
   33.7080   35.0080   24.3030 H   0  0  0  0  0  0  0  0  0  0  0  0
   32.1200   35.3410   23.4710 H   0  0  0  0  0  0  0  0  0  0  0  0
   33.0740   33.8400   23.0480 H   0  0  0  0  0  0  0  0  0  0  0  0
   33.3890   40.6790   24.9150 H   0  0  0  0  0  0  0  0  0  0  0  0
   38.2750   37.1460   14.8800 F   0  0  0  0  0  0  0  0  0  0  0  0
   33.6300   38.7170   27.0300 C   0  0  0  0  0  0  0  0  0  0  0  0
   31.7640   39.6630   26.3410 H   0  0  0  0  0  0  0  0  0  0  0  0
   34.2980   39.9950   27.5380 C   0  0  0  0  0  0  0  0  0  0  0  0
   32.8790   38.2470   28.1810 O   0  0  0  0  0  0  0  0  0  0  0  0
   34.6390   37.6460   26.6160 C   0  0  0  0  0  0  0  0  0  0  0  0
   32.4970   37.3530   28.0010 H   0  0  0  0  0  0  0  0  0  0  0  0
   34.9380   39.7730   28.4220 H   0  0  0  0  0  0  0  0  0  0  0  0
   34.9350   40.4460   26.7440 H   0  0  0  0  0  0  0  0  0  0  0  0
   33.5300   40.7470   27.8320 H   0  0  0  0  0  0  0  0  0  0  0  0
   35.1300   37.2190   27.5190 H   0  0  0  0  0  0  0  0  0  0  0  0
   34.1440   36.8150   26.0630 H   0  0  0  0  0  0  0  0  0  0  0  0
   35.4240   38.0800   25.9600 H   0  0  0  0  0  0  0  0  0  0  0  0
  1  3  2  0  0  0  0
  1  8  1  0  0  0  0
  1 23  1  0  0  0  0
  2 13  1  0  0  0  0
  2 19  2  0  0  0  0
  2 20  1  0  0  0  0
  3 14  1  0  0  0  0
  3 16  1  0  0  0  0
  4 18  2  0  0  0  0
  4 21  1  0  0  0  0
  4 22  1  0  0  0  0
  5 22  1  0  0  0  0
  5 24  1  0  0  0  0
  5 34  1  0  0  0  0
  5 35  1  0  0  0  0
  6  7  1  0  0  0  0
  6 11  1  0  0  0  0
  6 12  2  0  0  0  0
  7 13  2  0  0  0  0
  7 25  1  0  0  0  0
  8  9  2  0  0  0  0
  8 33  1  0  0  0  0
  9 10  1  0  0  0  0
  9 26  1  0  0  0  0
 10 14  2  0  0  0  0
 10 27  1  0  0  0  0
 11 20  1  0  0  0  0
 11 21  2  0  0  0  0
 12 18  1  0  0  0  0
 12 28  1  0  0  0  0
 13 17  1  0  0  0  0
 14 17  1  0  0  0  0
 15 20  1  0  0  0  0
 15 29  1  0  0  0  0
 15 30  1  0  0  0  0
 15 31  1  0  0  0  0
 22 32  1  0  0  0  0
 34 36  1  0  0  0  0
 34 37  1  0  0  0  0
 34 38  1  0  0  0  0
 36 40  1  0  0  0  0
 36 41  1  0  0  0  0
 36 42  1  0  0  0  0
 37 39  1  0  0  0  0
 38 43  1  0  0  0  0
 38 44  1  0  0  0  0
 38 45  1  0  0  0  0
M  END
$$$$
