p38a_2z
 OpenBabel02232411163D
Structure written by MMmdl.
 45 47  0  0  0  0  0  0  0  0999 V2000
   38.2850   36.5550   17.1540 C   0  0  0  0  0  0  0  0  0  0  0  0
   34.4800   35.0660   21.1750 C   0  0  0  0  0  0  0  0  0  0  0  0
   37.4940   36.1030   18.2070 C   0  0  0  0  0  0  0  0  0  0  0  0
   33.9740   39.0500   23.8820 C   0  0  0  0  0  0  0  0  0  0  0  0
   32.9770   39.0570   26.2460 C   0  0  0  0  0  0  0  0  0  0  0  0
   34.6720   37.9280   21.4480 C   0  0  0  0  0  0  0  0  0  0  0  0
   35.0870   37.3090   20.2190 C   0  0  0  0  0  0  0  0  0  0  0  0
   37.6440   36.7240   15.9200 C   0  0  0  0  0  0  0  0  0  0  0  0
   36.2930   36.4390   15.7080 C   0  0  0  0  0  0  0  0  0  0  0  0
   35.5220   35.9740   16.7790 C   0  0  0  0  0  0  0  0  0  0  0  0
   34.1960   37.1310   22.5300 C   0  0  0  0  0  0  0  0  0  0  0  0
   34.7160   39.3330   21.6660 C   0  0  0  0  0  0  0  0  0  0  0  0
   35.0200   35.9610   20.1180 C   0  0  0  0  0  0  0  0  0  0  0  0
   36.1280   35.7970   18.0250 C   0  0  0  0  0  0  0  0  0  0  0  0
   33.5510   34.9300   23.5150 C   0  0  0  0  0  0  0  0  0  0  0  0
   38.0220   35.9550   19.4150 F   0  0  0  0  0  0  0  0  0  0  0  0
   35.3980   35.1650   19.0380 O   0  0  0  0  0  0  0  0  0  0  0  0
   34.3910   39.9020   22.8340 N   0  0  0  0  0  0  0  0  0  0  0  0
   34.3600   33.8630   21.0820 O   0  0  0  0  0  0  0  0  0  0  0  0
   34.0870   35.7370   22.3840 N   0  0  0  0  0  0  0  0  0  0  0  0
   33.8400   37.6860   23.7340 N   0  0  0  0  0  0  0  0  0  0  0  0
   33.7740   39.6460   25.1110 N   0  0  0  0  0  0  0  0  0  0  0  0
   39.3420   36.8030   17.2920 H   0  0  0  0  0  0  0  0  0  0  0  0
   33.3640   37.6100   26.5640 C   0  0  0  0  0  0  0  0  0  0  0  0
   35.4500   37.9490   19.4130 H   0  0  0  0  0  0  0  0  0  0  0  0
   35.8280   36.5890   14.7310 H   0  0  0  0  0  0  0  0  0  0  0  0
   34.4570   35.7650   16.6330 H   0  0  0  0  0  0  0  0  0  0  0  0
   35.0210   40.0020   20.8440 H   0  0  0  0  0  0  0  0  0  0  0  0
   34.1860   35.0770   24.4300 H   0  0  0  0  0  0  0  0  0  0  0  0
   32.5020   35.2550   23.7540 H   0  0  0  0  0  0  0  0  0  0  0  0
   33.5420   33.8410   23.2470 H   0  0  0  0  0  0  0  0  0  0  0  0
   33.7780   40.6940   25.1280 H   0  0  0  0  0  0  0  0  0  0  0  0
   38.3500   37.2170   14.9060 F   0  0  0  0  0  0  0  0  0  0  0  0
   33.2520   39.9550   27.5040 C   0  0  0  0  0  0  0  0  0  0  0  0
   31.4770   39.1670   25.8990 C   0  0  0  0  0  0  0  0  0  0  0  0
   34.6070   39.8890   27.9570 O   0  0  0  0  0  0  0  0  0  0  0  0
   34.8160   38.9630   28.2400 H   0  0  0  0  0  0  0  0  0  0  0  0
   33.1180   41.0370   27.2800 H   0  0  0  0  0  0  0  0  0  0  0  0
   32.5700   39.6450   28.3310 H   0  0  0  0  0  0  0  0  0  0  0  0
   30.8560   38.8270   26.7590 H   0  0  0  0  0  0  0  0  0  0  0  0
   31.2080   40.2170   25.6480 H   0  0  0  0  0  0  0  0  0  0  0  0
   31.2250   38.5190   25.0290 H   0  0  0  0  0  0  0  0  0  0  0  0
   32.9970   37.3300   27.5790 H   0  0  0  0  0  0  0  0  0  0  0  0
   32.8870   36.9040   25.8400 H   0  0  0  0  0  0  0  0  0  0  0  0
   34.4640   37.4570   26.5140 H   0  0  0  0  0  0  0  0  0  0  0  0
  1  3  2  0  0  0  0
  1  8  1  0  0  0  0
  1 23  1  0  0  0  0
  2 13  1  0  0  0  0
  2 19  2  0  0  0  0
  2 20  1  0  0  0  0
  3 14  1  0  0  0  0
  3 16  1  0  0  0  0
  4 18  2  0  0  0  0
  4 21  1  0  0  0  0
  4 22  1  0  0  0  0
  5 22  1  0  0  0  0
  5 24  1  0  0  0  0
  5 34  1  0  0  0  0
  5 35  1  0  0  0  0
  6  7  1  0  0  0  0
  6 11  1  0  0  0  0
  6 12  2  0  0  0  0
  7 13  2  0  0  0  0
  7 25  1  0  0  0  0
  8  9  2  0  0  0  0
  8 33  1  0  0  0  0
  9 10  1  0  0  0  0
  9 26  1  0  0  0  0
 10 14  2  0  0  0  0
 10 27  1  0  0  0  0
 11 20  1  0  0  0  0
 11 21  2  0  0  0  0
 12 18  1  0  0  0  0
 12 28  1  0  0  0  0
 13 17  1  0  0  0  0
 14 17  1  0  0  0  0
 15 20  1  0  0  0  0
 15 29  1  0  0  0  0
 15 30  1  0  0  0  0
 15 31  1  0  0  0  0
 22 32  1  0  0  0  0
 24 43  1  0  0  0  0
 24 44  1  0  0  0  0
 24 45  1  0  0  0  0
 34 36  1  0  0  0  0
 34 38  1  0  0  0  0
 34 39  1  0  0  0  0
 35 40  1  0  0  0  0
 35 41  1  0  0  0  0
 35 42  1  0  0  0  0
 36 37  1  0  0  0  0
M  END
$$$$
