23482.pdb
 OpenBabel02232411173D

 50 52  0  0  0  0  0  0  0  0999 V2000
   37.6760    5.6240   14.5710 N   0  0  0  0  0  0  0  0  0  0  0  0
   39.2270    9.3740   16.0910 N   0  0  0  0  0  0  0  0  0  0  0  0
   38.0310    2.8930   15.1250 C   0  0  0  0  0  0  0  0  0  0  0  0
   37.0530    6.2340   15.7900 C   0  0  0  0  0  0  0  0  0  0  0  0
   37.3880    7.7350   15.8910 C   0  0  0  0  0  0  0  0  0  0  0  0
   38.9230    7.9250   15.9360 C   0  0  0  0  0  0  0  0  0  0  0  0
   40.5730    9.7540   16.4280 C   0  0  0  0  0  0  0  0  0  0  0  0
   41.5120    8.8930   17.0130 C   0  0  0  0  0  0  0  0  0  0  0  0
   42.7880    9.3850   17.3250 C   0  0  0  0  0  0  0  0  0  0  0  0
   43.1600   10.6880   17.0150 C   0  0  0  0  0  0  0  0  0  0  0  0
   42.2220   11.5620   16.4160 C   0  0  0  0  0  0  0  0  0  0  0  0
   42.5970   12.8860   15.9670 C   0  0  0  0  0  0  0  0  0  0  0  0
   43.6490   15.2000   15.7030 C   0  0  0  0  0  0  0  0  0  0  0  0
   44.4330   16.4890   15.9450 C   0  0  0  0  0  0  0  0  0  0  0  0
   42.7960   14.8660   14.6800 C   0  0  0  0  0  0  0  0  0  0  0  0
   41.3210   16.0800   13.2560 C   0  0  0  0  0  0  0  0  0  0  0  0
   41.5450   17.5650   12.8260 C   0  0  0  0  0  0  0  0  0  0  0  0
   42.1860   13.5670   14.8500 C   0  0  0  0  0  0  0  0  0  0  0  0
   40.9160   11.1040   16.2010 C   0  0  0  0  0  0  0  0  0  0  0  0
   39.5410    7.3040   14.6590 C   0  0  0  0  0  0  0  0  0  0  0  0
   39.1630    5.8160   14.5430 C   0  0  0  0  0  0  0  0  0  0  0  0
   35.6870    3.9550   14.4820 O   0  0  0  0  0  0  0  0  0  0  0  0
   37.3870    3.8290   12.7320 O   0  0  0  0  0  0  0  0  0  0  0  0
   45.5520   16.3310   16.4820 O   0  0  0  0  0  0  0  0  0  0  0  0
   43.9500   17.5610   15.5840 O   0  5  0  0  0  0  0  0  0  0  0  0
   42.6820   15.6380   13.5700 O   0  0  0  0  0  0  0  0  0  0  0  0
   40.5370   18.3010   12.8710 O   0  0  0  0  0  0  0  0  0  0  0  0
   42.6740   17.8910   12.4370 O   0  5  0  0  0  0  0  0  0  0  0  0
   40.9280   12.8750   13.5940 Br  0  0  0  0  0  0  0  0  0  0  0  0
   37.1330    4.0340   14.1710 S   0  0  0  0  0  0  0  0  0  0  0  0
   43.7680   13.8670   16.8140 S   0  0  0  0  0  0  0  0  0  0  0  0
   38.0160    3.1400   16.2200 H   0  0  0  0  0  0  0  0  0  0  0  0
   37.6290    1.8520   15.0350 H   0  0  0  0  0  0  0  0  0  0  0  0
   39.1130    2.8360   14.8350 H   0  0  0  0  0  0  0  0  0  0  0  0
   35.9390    6.1230   15.7220 H   0  0  0  0  0  0  0  0  0  0  0  0
   37.4150    5.7160   16.7240 H   0  0  0  0  0  0  0  0  0  0  0  0
   36.9500    8.2790   15.0220 H   0  0  0  0  0  0  0  0  0  0  0  0
   36.9320    8.1290   16.8310 H   0  0  0  0  0  0  0  0  0  0  0  0
   38.8620    9.9060   15.2770 H   0  0  0  0  0  0  0  0  0  0  0  0
   41.2820    7.8530   17.2300 H   0  0  0  0  0  0  0  0  0  0  0  0
   43.4970    8.7070   17.8050 H   0  0  0  0  0  0  0  0  0  0  0  0
   44.1800   11.0090   17.2310 H   0  0  0  0  0  0  0  0  0  0  0  0
   40.9730   15.4560   12.4070 H   0  0  0  0  0  0  0  0  0  0  0  0
   40.6360   15.9800   14.1230 H   0  0  0  0  0  0  0  0  0  0  0  0
   40.1310   11.7800   15.8520 H   0  0  0  0  0  0  0  0  0  0  0  0
   39.1950    7.8530   13.7560 H   0  0  0  0  0  0  0  0  0  0  0  0
   40.6560    7.3580   14.7150 H   0  0  0  0  0  0  0  0  0  0  0  0
   39.6600    5.2570   15.3880 H   0  0  0  0  0  0  0  0  0  0  0  0
   39.5640    5.4230   13.5710 H   0  0  0  0  0  0  0  0  0  0  0  0
   39.3120    7.3720   16.8340 H   0  0  0  0  0  0  0  0  0  0  0  0
  1  4  1  0  0  0  0
  1 21  1  0  0  0  0
  1 30  1  0  0  0  0
  2  6  1  0  0  0  0
  2  7  1  0  0  0  0
  2 39  1  0  0  0  0
  3 30  1  0  0  0  0
  3 32  1  0  0  0  0
  3 33  1  0  0  0  0
  3 34  1  0  0  0  0
  4  5  1  0  0  0  0
  4 35  1  0  0  0  0
  4 36  1  0  0  0  0
  5  6  1  0  0  0  0
  5 37  1  0  0  0  0
  5 38  1  0  0  0  0
  6 20  1  0  0  0  0
  6 50  1  0  0  0  0
  7  8  2  0  0  0  0
  7 19  1  0  0  0  0
  8  9  1  0  0  0  0
  8 40  1  0  0  0  0
  9 10  2  0  0  0  0
  9 41  1  0  0  0  0
 10 11  1  0  0  0  0
 10 42  1  0  0  0  0
 11 12  1  0  0  0  0
 11 19  2  0  0  0  0
 12 18  2  0  0  0  0
 12 31  1  0  0  0  0
 13 14  1  0  0  0  0
 13 15  2  0  0  0  0
 13 31  1  0  0  0  0
 14 24  2  0  0  0  0
 14 25  1  0  0  0  0
 15 18  1  0  0  0  0
 15 26  1  0  0  0  0
 16 17  1  0  0  0  0
 16 26  1  0  0  0  0
 16 43  1  0  0  0  0
 16 44  1  0  0  0  0
 17 27  2  0  0  0  0
 17 28  1  0  0  0  0
 18 29  1  0  0  0  0
 19 45  1  0  0  0  0
 20 21  1  0  0  0  0
 20 46  1  0  0  0  0
 20 47  1  0  0  0  0
 21 48  1  0  0  0  0
 21 49  1  0  0  0  0
 22 30  2  0  0  0  0
 23 30  2  0  0  0  0
M  CHG  2  25  -1  28  -1
M  END
$$$$
