CAT-13a
 OpenBabel02232411143D
Structure written by MMmdl.
 39 41  0  0  1  0  0  0  0  0999 V2000
   11.7590   -2.2860    1.1260 C   0  0  0  0  0  0  0  0  0  0  0  0
   13.1080   -2.4490    0.5450 N   0  0  0  0  0  0  0  0  0  0  0  0
   14.2760   -2.4010    1.3040 C   0  0  0  0  0  0  0  0  0  0  0  0
   14.3630   -2.4320    2.6620 N   0  0  0  0  0  0  0  0  0  0  0  0
   15.3930   -2.3870    0.4620 N   0  3  0  0  0  0  0  0  0  0  0  0
   14.9870   -2.7210   -0.9590 C   0  0  2  0  0  0  0  0  0  0  0  0
   15.3220   -4.1770   -1.2480 C   0  0  0  0  0  0  0  0  0  0  0  0
   15.5300   -1.6810   -1.9180 C   0  0  0  0  0  0  0  0  0  0  0  0
   16.2530   -2.0470   -3.0600 C   0  0  0  0  0  0  0  0  0  0  0  0
   16.6680   -1.0600   -3.9610 C   0  0  0  0  0  0  0  0  0  0  0  0
   16.3750    0.2840   -3.7300 C   0  0  0  0  0  0  0  0  0  0  0  0
   15.6770    0.6660   -2.5700 C   0  0  0  0  0  0  0  0  0  0  0  0
   15.3860    2.0910   -2.2920 C   0  0  0  0  0  0  0  0  0  0  0  0
   15.5650    2.6040   -0.9970 C   0  0  0  0  0  0  0  0  0  0  0  0
   15.2360    3.9310   -0.7050 C   0  0  0  0  0  0  0  0  0  0  0  0
   14.7420    4.7690   -1.7070 C   0  0  0  0  0  0  0  0  0  0  0  0
   14.6140    4.2610   -3.0040 C   0  0  0  0  0  0  0  0  0  0  0  0
   14.0620    5.3030   -4.2540 Cl  0  0  0  0  0  0  0  0  0  0  0  0
   14.9170    2.9340   -3.3140 C   0  0  0  0  0  0  0  0  0  0  0  0
   15.2530   -0.3260   -1.6750 C   0  0  0  0  0  0  0  0  0  0  0  0
   13.4270   -2.5890   -0.8910 C   0  0  0  0  0  0  0  0  0  0  0  0
   12.5830   -2.5890   -1.7270 O   0  0  0  0  0  0  0  0  0  0  0  0
   11.5050   -1.1950    1.1820 H   0  0  0  0  0  0  0  0  0  0  0  0
   11.0110   -2.8180    0.4780 H   0  0  0  0  0  0  0  0  0  0  0  0
   11.7190   -2.7360    2.1550 H   0  0  0  0  0  0  0  0  0  0  0  0
   15.3190   -2.3750    3.1110 H   0  0  0  0  0  0  0  0  0  0  0  0
   16.3110   -2.7360    0.8420 H   0  0  0  0  0  0  0  0  0  0  0  0
   16.4320   -4.3300   -1.2420 H   0  0  0  0  0  0  0  0  0  0  0  0
   14.8810   -4.8570   -0.4780 H   0  0  0  0  0  0  0  0  0  0  0  0
   14.9190   -4.4790   -2.2470 H   0  0  0  0  0  0  0  0  0  0  0  0
   16.4950   -3.0900   -3.2610 H   0  0  0  0  0  0  0  0  0  0  0  0
   17.2340   -1.3460   -4.8540 H   0  0  0  0  0  0  0  0  0  0  0  0
   16.6970    1.0360   -4.4580 H   0  0  0  0  0  0  0  0  0  0  0  0
   15.9530    1.9580   -0.2070 H   0  0  0  0  0  0  0  0  0  0  0  0
   15.3580    4.3020    0.3170 H   0  0  0  0  0  0  0  0  0  0  0  0
   14.4440    5.7940   -1.4720 H   0  0  0  0  0  0  0  0  0  0  0  0
   14.7820    2.5520   -4.3310 H   0  0  0  0  0  0  0  0  0  0  0  0
   14.7060   -0.0490   -0.7750 H   0  0  0  0  0  0  0  0  0  0  0  0
   13.6040   -2.0570    3.2800 H   0  0  0  0  0  0  0  0  0  0  0  0
  1  2  1  0  0  0  0
  1 23  1  0  0  0  0
  1 24  1  0  0  0  0
  1 25  1  0  0  0  0
  2  3  1  0  0  0  0
  2 21  1  0  0  0  0
  3  4  1  0  0  0  0
  3  5  2  0  0  0  0
  4 26  1  0  0  0  0
  4 39  1  0  0  0  0
  5  6  1  0  0  0  0
  5 27  1  0  0  0  0
  6  7  1  6  0  0  0
  6  8  1  0  0  0  0
  6 21  1  0  0  0  0
  7 28  1  0  0  0  0
  7 29  1  0  0  0  0
  7 30  1  0  0  0  0
  8  9  2  0  0  0  0
  8 20  1  0  0  0  0
  9 10  1  0  0  0  0
  9 31  1  0  0  0  0
 10 11  2  0  0  0  0
 10 32  1  0  0  0  0
 11 12  1  0  0  0  0
 11 33  1  0  0  0  0
 12 13  1  0  0  0  0
 12 20  2  0  0  0  0
 13 14  2  0  0  0  0
 13 19  1  0  0  0  0
 14 15  1  0  0  0  0
 14 34  1  0  0  0  0
 15 16  2  0  0  0  0
 15 35  1  0  0  0  0
 16 17  1  0  0  0  0
 16 36  1  0  0  0  0
 17 18  1  0  0  0  0
 17 19  2  0  0  0  0
 19 37  1  0  0  0  0
 20 38  1  0  0  0  0
 21 22  2  0  0  0  0
M  CHG  1   5   1
M  END
$$$$
