18639-1
 OpenBabel02232411163D
Structure written by MMmdl.
 48 49  0  0  0  0  0  0  0  0999 V2000
   24.4440   10.9060   30.7610 C   0  0  0  0  0  0  0  0  0  0  0  0
   23.1170   11.2560   30.1200 C   0  0  0  0  0  0  0  0  0  0  0  0
   22.0400   11.3160   31.1300 O   0  0  0  0  0  0  0  0  0  0  0  0
   21.4560   10.1660   31.5400 C   0  0  0  0  0  0  0  0  0  0  0  0
   21.9360    8.9780   31.1050 N   0  0  0  0  0  0  0  0  0  0  0  0
   21.2430    7.8350   31.4720 C   0  0  0  0  0  0  0  0  0  0  0  0
   20.1080    7.8660   32.2730 C   0  0  0  0  0  0  0  0  0  0  0  0
   19.6190    9.1170   32.7380 C   0  0  0  0  0  0  0  0  0  0  0  0
   18.4840    9.1530   33.5070 N   0  0  0  0  0  0  0  0  0  0  0  0
   20.3080   10.3180   32.3740 C   0  0  0  0  0  0  0  0  0  0  0  0
   19.8970   11.6160   32.7450 C   0  0  0  0  0  0  0  0  0  0  0  0
   19.6110   12.7080   33.0090 N   0  0  0  0  0  0  0  0  0  0  0  0
   21.8300    6.6710   30.9220 N   0  0  0  0  0  0  0  0  0  0  0  0
   21.2580    5.3840   30.8650 C   0  0  0  0  0  0  0  0  0  0  0  0
   20.1820    5.1160   31.3570 O   0  0  0  0  0  0  0  0  0  0  0  0
   22.0870    4.3910   30.0570 C   0  0  0  0  0  0  0  0  0  0  0  0
   23.4580    4.1330   30.6090 C   0  0  0  0  0  0  0  0  0  0  0  0
   24.5470    5.0050   30.2890 C   0  0  0  0  0  0  0  0  0  0  0  0
   24.1770    6.0570   29.4610 O   0  0  0  0  0  0  0  0  0  0  0  0
   25.1270    7.1450   29.2860 C   0  0  0  0  0  0  0  0  0  0  0  0
   25.8310    4.7670   30.7520 C   0  0  0  0  0  0  0  0  0  0  0  0
   26.0750    3.6490   31.5780 C   0  0  0  0  0  0  0  0  0  0  0  0
   27.4320    3.4010   32.0700 N   0  3  0  0  0  0  0  0  0  0  0  0
   27.5820    2.5800   32.9620 O   0  5  0  0  0  0  0  0  0  0  0  0
   28.3610    4.0220   31.5650 O   0  0  0  0  0  0  0  0  0  0  0  0
   25.0110    2.7750   31.9020 C   0  0  0  0  0  0  0  0  0  0  0  0
   23.7110    3.0250   31.4020 C   0  0  0  0  0  0  0  0  0  0  0  0
   25.3700    1.7340   32.7040 O   0  0  0  0  0  0  0  0  0  0  0  0
   24.3790    0.6920   32.9470 C   0  0  0  0  0  0  0  0  0  0  0  0
   25.2330   10.8550   29.9690 H   0  0  0  0  0  0  0  0  0  0  0  0
   24.7420   11.6710   31.5080 H   0  0  0  0  0  0  0  0  0  0  0  0
   24.4000    9.9070   31.2570 H   0  0  0  0  0  0  0  0  0  0  0  0
   23.0870   12.3130   29.7600 H   0  0  0  0  0  0  0  0  0  0  0  0
   22.8340   10.5360   29.3200 H   0  0  0  0  0  0  0  0  0  0  0  0
   19.5750    6.9490   32.5330 H   0  0  0  0  0  0  0  0  0  0  0  0
   17.9850    8.2780   33.7610 H   0  0  0  0  0  0  0  0  0  0  0  0
   18.0720   10.0360   33.8070 H   0  0  0  0  0  0  0  0  0  0  0  0
   22.7380    6.8290   30.4140 H   0  0  0  0  0  0  0  0  0  0  0  0
   21.5200    3.4230   30.0010 H   0  0  0  0  0  0  0  0  0  0  0  0
   22.1900    4.8010   29.0130 H   0  0  0  0  0  0  0  0  0  0  0  0
   25.4830    7.5210   30.2690 H   0  0  0  0  0  0  0  0  0  0  0  0
   25.9580    6.7970   28.6360 H   0  0  0  0  0  0  0  0  0  0  0  0
   24.4940    7.9050   28.7710 H   0  0  0  0  0  0  0  0  0  0  0  0
   26.6670    5.4220   30.4760 H   0  0  0  0  0  0  0  0  0  0  0  0
   22.9010    2.3300   31.6380 H   0  0  0  0  0  0  0  0  0  0  0  0
   24.9730   -0.0420   33.5440 H   0  0  0  0  0  0  0  0  0  0  0  0
   23.5340    1.0990   33.5420 H   0  0  0  0  0  0  0  0  0  0  0  0
   24.0480    0.2470   31.9840 H   0  0  0  0  0  0  0  0  0  0  0  0
  1  2  1  0  0  0  0
  1 30  1  0  0  0  0
  1 31  1  0  0  0  0
  1 32  1  0  0  0  0
  2  3  1  0  0  0  0
  2 33  1  0  0  0  0
  2 34  1  0  0  0  0
  3  4  1  0  0  0  0
  4 10  2  0  0  0  0
  4  5  1  0  0  0  0
  5  6  2  0  0  0  0
  6  7  1  0  0  0  0
  6 13  1  0  0  0  0
  7  8  2  0  0  0  0
  7 35  1  0  0  0  0
  8  9  1  0  0  0  0
  8 10  1  0  0  0  0
  9 36  1  0  0  0  0
  9 37  1  0  0  0  0
 10 11  1  0  0  0  0
 11 12  3  0  0  0  0
 13 14  1  0  0  0  0
 13 38  1  0  0  0  0
 14 15  2  0  0  0  0
 14 16  1  0  0  0  0
 16 17  1  0  0  0  0
 16 39  1  0  0  0  0
 16 40  1  0  0  0  0
 17 27  2  0  0  0  0
 17 18  1  0  0  0  0
 18 19  1  0  0  0  0
 18 21  2  0  0  0  0
 19 20  1  0  0  0  0
 20 41  1  0  0  0  0
 20 42  1  0  0  0  0
 20 43  1  0  0  0  0
 21 22  1  0  0  0  0
 21 44  1  0  0  0  0
 22 23  1  0  0  0  0
 22 26  2  0  0  0  0
 23 24  1  0  0  0  0
 23 25  2  0  0  0  0
 26 27  1  0  0  0  0
 26 28  1  0  0  0  0
 27 45  1  0  0  0  0
 28 29  1  0  0  0  0
 29 46  1  0  0  0  0
 29 47  1  0  0  0  0
 29 48  1  0  0  0  0
M  CHG  2  23   1  24  -1
M  END
$$$$
