p38a_2aa
 OpenBabel02232411163D
Structure written by MMmdl.
 43 45  0  0  0  0  0  0  0  0999 V2000
   38.3080   36.5630   17.1130 C   0  0  0  0  0  0  0  0  0  0  0  0
   34.5390   35.0110   21.1190 C   0  0  0  0  0  0  0  0  0  0  0  0
   37.5200   36.0820   18.1550 C   0  0  0  0  0  0  0  0  0  0  0  0
   33.9210   39.0500   23.7150 C   0  0  0  0  0  0  0  0  0  0  0  0
   32.9480   39.0460   26.0810 C   0  0  0  0  0  0  0  0  0  0  0  0
   34.6760   37.8850   21.3330 C   0  0  0  0  0  0  0  0  0  0  0  0
   35.0920   37.2470   20.1140 C   0  0  0  0  0  0  0  0  0  0  0  0
   37.6690   36.7330   15.8770 C   0  0  0  0  0  0  0  0  0  0  0  0
   36.3250   36.4250   15.6550 C   0  0  0  0  0  0  0  0  0  0  0  0
   35.5590   35.9260   16.7130 C   0  0  0  0  0  0  0  0  0  0  0  0
   34.2470   37.0960   22.4400 C   0  0  0  0  0  0  0  0  0  0  0  0
   34.6800   39.2950   21.5090 C   0  0  0  0  0  0  0  0  0  0  0  0
   35.0490   35.8970   20.0400 C   0  0  0  0  0  0  0  0  0  0  0  0
   36.1640   35.7450   17.9600 C   0  0  0  0  0  0  0  0  0  0  0  0
   33.7430   34.9040   23.5140 C   0  0  0  0  0  0  0  0  0  0  0  0
   38.0400   35.9410   19.3670 F   0  0  0  0  0  0  0  0  0  0  0  0
   35.4390   35.0950   18.9680 O   0  0  0  0  0  0  0  0  0  0  0  0
   34.3230   39.8900   22.6560 N   0  0  0  0  0  0  0  0  0  0  0  0
   34.4110   33.8090   21.0440 O   0  0  0  0  0  0  0  0  0  0  0  0
   34.1830   35.6990   22.3340 N   0  0  0  0  0  0  0  0  0  0  0  0
   33.8690   37.6730   23.6290 N   0  0  0  0  0  0  0  0  0  0  0  0
   33.5280   39.6800   24.8710 N   0  0  0  0  0  0  0  0  0  0  0  0
   39.3570   36.8330   17.2620 H   0  0  0  0  0  0  0  0  0  0  0  0
   31.8030   38.0250   25.8140 C   0  0  0  0  0  0  0  0  0  0  0  0
   35.4360   37.8780   19.2930 H   0  0  0  0  0  0  0  0  0  0  0  0
   35.8610   36.5830   14.6790 H   0  0  0  0  0  0  0  0  0  0  0  0
   34.4990   35.6980   16.5610 H   0  0  0  0  0  0  0  0  0  0  0  0
   34.9760   39.9520   20.6740 H   0  0  0  0  0  0  0  0  0  0  0  0
   34.3300   35.2060   24.4240 H   0  0  0  0  0  0  0  0  0  0  0  0
   32.6540   35.0910   23.7160 H   0  0  0  0  0  0  0  0  0  0  0  0
   33.9010   33.8100   23.3260 H   0  0  0  0  0  0  0  0  0  0  0  0
   33.6150   40.7150   24.9340 H   0  0  0  0  0  0  0  0  0  0  0  0
   38.3690   37.2560   14.8740 F   0  0  0  0  0  0  0  0  0  0  0  0
   34.0840   38.4000   26.9240 C   0  0  0  0  0  0  0  0  0  0  0  0
   33.6700   38.2990   28.2940 O   0  0  0  0  0  0  0  0  0  0  0  0
   32.9990   37.5740   28.3860 H   0  0  0  0  0  0  0  0  0  0  0  0
   34.3750   37.3980   26.5360 H   0  0  0  0  0  0  0  0  0  0  0  0
   34.9650   39.0850   26.9800 H   0  0  0  0  0  0  0  0  0  0  0  0
   31.0330   38.3380   24.6490 O   0  0  0  0  0  0  0  0  0  0  0  0
   32.2090   36.9900   25.7130 H   0  0  0  0  0  0  0  0  0  0  0  0
   31.0520   38.0860   26.6390 H   0  0  0  0  0  0  0  0  0  0  0  0
   31.6050   38.1710   23.8700 H   0  0  0  0  0  0  0  0  0  0  0  0
   32.5180   39.9030   26.6820 H   0  0  0  0  0  0  0  0  0  0  0  0
  1  3  2  0  0  0  0
  1  8  1  0  0  0  0
  1 23  1  0  0  0  0
  2 13  1  0  0  0  0
  2 19  2  0  0  0  0
  2 20  1  0  0  0  0
  3 14  1  0  0  0  0
  3 16  1  0  0  0  0
  4 18  2  0  0  0  0
  4 21  1  0  0  0  0
  4 22  1  0  0  0  0
  5 22  1  0  0  0  0
  5 24  1  0  0  0  0
  5 34  1  0  0  0  0
  5 43  1  0  0  0  0
  6  7  1  0  0  0  0
  6 11  1  0  0  0  0
  6 12  2  0  0  0  0
  7 13  2  0  0  0  0
  7 25  1  0  0  0  0
  8  9  2  0  0  0  0
  8 33  1  0  0  0  0
  9 10  1  0  0  0  0
  9 26  1  0  0  0  0
 10 14  2  0  0  0  0
 10 27  1  0  0  0  0
 11 20  1  0  0  0  0
 11 21  2  0  0  0  0
 12 18  1  0  0  0  0
 12 28  1  0  0  0  0
 13 17  1  0  0  0  0
 14 17  1  0  0  0  0
 15 20  1  0  0  0  0
 15 29  1  0  0  0  0
 15 30  1  0  0  0  0
 15 31  1  0  0  0  0
 22 32  1  0  0  0  0
 24 39  1  0  0  0  0
 24 40  1  0  0  0  0
 24 41  1  0  0  0  0
 34 35  1  0  0  0  0
 34 37  1  0  0  0  0
 34 38  1  0  0  0  0
 35 36  1  0  0  0  0
 39 42  1  0  0  0  0
M  END
$$$$
