p38a_2u
 OpenBabel02232411163D
Structure written by MMmdl.
 64 68  0  0  0  0  0  0  0  0999 V2000
   38.2570   36.5240   17.1770 C   0  0  0  0  0  0  0  0  0  0  0  0
   34.5740   35.1330   21.2740 C   0  0  0  0  0  0  0  0  0  0  0  0
   37.4590   36.0860   18.2310 C   0  0  0  0  0  0  0  0  0  0  0  0
   34.0160   39.2220   23.8010 C   0  0  0  0  0  0  0  0  0  0  0  0
   34.6290   38.0130   21.3980 C   0  0  0  0  0  0  0  0  0  0  0  0
   34.9960   37.3550   20.1740 C   0  0  0  0  0  0  0  0  0  0  0  0
   37.6180   36.6980   15.9420 C   0  0  0  0  0  0  0  0  0  0  0  0
   36.2630   36.4290   15.7310 C   0  0  0  0  0  0  0  0  0  0  0  0
   35.4860   35.9770   16.8030 C   0  0  0  0  0  0  0  0  0  0  0  0
   34.3190   37.2400   22.5560 C   0  0  0  0  0  0  0  0  0  0  0  0
   34.5760   39.4270   21.5340 C   0  0  0  0  0  0  0  0  0  0  0  0
   35.0000   36.0040   20.1420 C   0  0  0  0  0  0  0  0  0  0  0  0
   36.0900   35.7970   18.0500 C   0  0  0  0  0  0  0  0  0  0  0  0
   37.9850   35.9340   19.4390 F   0  0  0  0  0  0  0  0  0  0  0  0
   35.3510   35.1840   19.0710 O   0  0  0  0  0  0  0  0  0  0  0  0
   34.2890   40.0450   22.6900 N   0  0  0  0  0  0  0  0  0  0  0  0
   34.4620   33.9290   21.2040 O   0  0  0  0  0  0  0  0  0  0  0  0
   34.3030   35.8320   22.5040 N   0  0  0  0  0  0  0  0  0  0  0  0
   34.0310   37.8430   23.7530 N   0  0  0  0  0  0  0  0  0  0  0  0
   33.6470   39.8330   24.9790 N   0  0  0  0  0  0  0  0  0  0  0  0
   39.3170   36.7590   17.3160 H   0  0  0  0  0  0  0  0  0  0  0  0
   35.2700   37.9730   19.3170 H   0  0  0  0  0  0  0  0  0  0  0  0
   35.8000   36.5810   14.7530 H   0  0  0  0  0  0  0  0  0  0  0  0
   34.4180   35.7830   16.6610 H   0  0  0  0  0  0  0  0  0  0  0  0
   34.7750   40.0670   20.6590 H   0  0  0  0  0  0  0  0  0  0  0  0
   33.7570   40.8600   25.0810 H   0  0  0  0  0  0  0  0  0  0  0  0
   38.3310   37.1810   14.9280 F   0  0  0  0  0  0  0  0  0  0  0  0
   32.3980   39.0780   28.5070 C   0  0  0  0  0  0  0  0  0  0  0  0
   32.4380   39.7380   27.1230 C   0  0  0  0  0  0  0  0  0  0  0  0
   33.5400   39.0780   26.2650 C   0  0  0  0  0  0  0  0  0  0  0  0
   34.8940   39.0950   27.0120 C   0  0  0  0  0  0  0  0  0  0  0  0
   34.7280   38.4870   28.4100 C   0  0  0  0  0  0  0  0  0  0  0  0
   33.6860   39.1520   29.1610 O   0  0  0  0  0  0  0  0  0  0  0  0
   32.0910   38.0080   28.4290 H   0  0  0  0  0  0  0  0  0  0  0  0
   31.7410   39.6420   29.2070 H   0  0  0  0  0  0  0  0  0  0  0  0
   32.6460   40.8280   27.2350 H   0  0  0  0  0  0  0  0  0  0  0  0
   31.4500   39.6130   26.6190 H   0  0  0  0  0  0  0  0  0  0  0  0
   33.2450   38.0130   26.0480 H   0  0  0  0  0  0  0  0  0  0  0  0
   35.6420   38.4950   26.4410 H   0  0  0  0  0  0  0  0  0  0  0  0
   35.2650   40.1430   27.0950 H   0  0  0  0  0  0  0  0  0  0  0  0
   34.4860   37.4000   28.3430 H   0  0  0  0  0  0  0  0  0  0  0  0
   35.6300   38.6660   29.0390 H   0  0  0  0  0  0  0  0  0  0  0  0
   34.6450   33.2500   25.3680 C   0  0  0  0  0  0  0  0  0  0  0  0
   35.0090   34.0030   24.0720 C   0  0  0  0  0  0  0  0  0  0  0  0
   33.9340   35.0610   23.7560 C   0  0  0  0  0  0  0  0  0  0  0  0
   32.5230   34.4530   23.6190 C   0  0  0  0  0  0  0  0  0  0  0  0
   32.4560   33.0160   24.1770 C   0  0  0  0  0  0  0  0  0  0  0  0
   34.9050   33.9090   26.2410 H   0  0  0  0  0  0  0  0  0  0  0  0
   35.2620   32.3140   25.4120 H   0  0  0  0  0  0  0  0  0  0  0  0
   35.0950   33.2790   23.2270 H   0  0  0  0  0  0  0  0  0  0  0  0
   35.9900   34.5110   24.2220 H   0  0  0  0  0  0  0  0  0  0  0  0
   33.9210   35.7870   24.6210 H   0  0  0  0  0  0  0  0  0  0  0  0
   31.8010   35.1130   24.1600 H   0  0  0  0  0  0  0  0  0  0  0  0
   32.1960   34.4220   22.5520 H   0  0  0  0  0  0  0  0  0  0  0  0
   31.3800   32.7390   24.3370 H   0  0  0  0  0  0  0  0  0  0  0  0
   32.8970   32.3130   23.4210 H   0  0  0  0  0  0  0  0  0  0  0  0
   33.2150   32.8220   25.4390 N   0  0  0  0  0  0  0  0  0  0  0  0
   32.3790   33.0100   26.9330 S   0  0  0  0  0  0  0  0  0  0  0  0
   33.0220   32.1030   27.9030 O   0  0  0  0  0  0  0  0  0  0  0  0
   30.9720   32.6300   26.6940 O   0  0  0  0  0  0  0  0  0  0  0  0
   32.5250   34.6620   27.4330 C   0  0  0  0  0  0  0  0  0  0  0  0
   33.5450   34.9210   27.8260 H   0  0  0  0  0  0  0  0  0  0  0  0
   32.2990   35.3930   26.6130 H   0  0  0  0  0  0  0  0  0  0  0  0
   31.8110   34.9160   28.2640 H   0  0  0  0  0  0  0  0  0  0  0  0
  1  3  2  0  0  0  0
  1  7  1  0  0  0  0
  1 21  1  0  0  0  0
  2 12  1  0  0  0  0
  2 17  2  0  0  0  0
  2 18  1  0  0  0  0
  3 13  1  0  0  0  0
  3 14  1  0  0  0  0
  4 16  2  0  0  0  0
  4 19  1  0  0  0  0
  4 20  1  0  0  0  0
  5  6  1  0  0  0  0
  5 10  1  0  0  0  0
  5 11  2  0  0  0  0
  6 12  2  0  0  0  0
  6 22  1  0  0  0  0
  7  8  2  0  0  0  0
  7 27  1  0  0  0  0
  8  9  1  0  0  0  0
  8 23  1  0  0  0  0
  9 13  2  0  0  0  0
  9 24  1  0  0  0  0
 10 18  1  0  0  0  0
 10 19  2  0  0  0  0
 11 16  1  0  0  0  0
 11 25  1  0  0  0  0
 12 15  1  0  0  0  0
 13 15  1  0  0  0  0
 18 45  1  0  0  0  0
 20 26  1  0  0  0  0
 20 30  1  0  0  0  0
 28 29  1  0  0  0  0
 28 33  1  0  0  0  0
 28 34  1  0  0  0  0
 28 35  1  0  0  0  0
 29 30  1  0  0  0  0
 29 36  1  0  0  0  0
 29 37  1  0  0  0  0
 30 31  1  0  0  0  0
 30 38  1  0  0  0  0
 31 32  1  0  0  0  0
 31 39  1  0  0  0  0
 31 40  1  0  0  0  0
 32 33  1  0  0  0  0
 32 41  1  0  0  0  0
 32 42  1  0  0  0  0
 43 44  1  0  0  0  0
 43 48  1  0  0  0  0
 43 49  1  0  0  0  0
 43 57  1  0  0  0  0
 44 45  1  0  0  0  0
 44 50  1  0  0  0  0
 44 51  1  0  0  0  0
 45 46  1  0  0  0  0
 45 52  1  0  0  0  0
 46 47  1  0  0  0  0
 46 53  1  0  0  0  0
 46 54  1  0  0  0  0
 47 55  1  0  0  0  0
 47 56  1  0  0  0  0
 47 57  1  0  0  0  0
 57 58  1  0  0  0  0
 58 59  2  0  0  0  0
 58 60  2  0  0  0  0
 58 61  1  0  0  0  0
 61 62  1  0  0  0  0
 61 63  1  0  0  0  0
 61 64  1  0  0  0  0
M  END
$$$$
