CAT-13i
 OpenBabel02232411143D
Structure written by MMmdl.
 46 49  0  0  1  0  0  0  0  0999 V2000
   11.7640   -1.8410    1.1590 C   0  0  0  0  0  0  0  0  0  0  0  0
   13.0670   -2.2230    0.5830 N   0  0  0  0  0  0  0  0  0  0  0  0
   14.2410   -2.3170    1.3400 C   0  0  0  0  0  0  0  0  0  0  0  0
   14.3430   -2.2880    2.6930 N   0  0  0  0  0  0  0  0  0  0  0  0
   15.3310   -2.5310    0.4980 N   0  3  0  0  0  0  0  0  0  0  0  0
   14.8590   -2.8810   -0.8910 C   0  0  2  0  0  0  0  0  0  0  0  0
   15.1470   -4.3510   -1.2110 C   0  0  0  0  0  0  0  0  0  0  0  0
   14.6370   -5.4690   -0.3180 C   0  0  0  0  0  0  0  0  0  0  0  0
   13.7380   -5.4190    0.9090 C   0  0  0  0  0  0  0  0  0  0  0  0
   13.2040   -5.9880   -0.3850 C   0  0  0  0  0  0  0  0  0  0  0  0
   15.4270   -1.8550   -1.8690 C   0  0  0  0  0  0  0  0  0  0  0  0
   16.1340   -2.2300   -3.0160 C   0  0  0  0  0  0  0  0  0  0  0  0
   16.5810   -1.2460   -3.9060 C   0  0  0  0  0  0  0  0  0  0  0  0
   16.3350    0.1050   -3.6630 C   0  0  0  0  0  0  0  0  0  0  0  0
   15.6490    0.4970   -2.5000 C   0  0  0  0  0  0  0  0  0  0  0  0
   15.4050    1.9290   -2.2120 C   0  0  0  0  0  0  0  0  0  0  0  0
   15.6240    2.4300   -0.9190 C   0  0  0  0  0  0  0  0  0  0  0  0
   15.3410    3.7640   -0.6140 C   0  0  0  0  0  0  0  0  0  0  0  0
   14.8540    4.6230   -1.6020 C   0  0  0  0  0  0  0  0  0  0  0  0
   14.6870    4.1250   -2.8990 C   0  0  0  0  0  0  0  0  0  0  0  0
   14.1420    5.1920   -4.1310 Cl  0  0  0  0  0  0  0  0  0  0  0  0
   14.9440    2.7910   -3.2210 C   0  0  0  0  0  0  0  0  0  0  0  0
   15.1950   -0.4910   -1.6140 C   0  0  0  0  0  0  0  0  0  0  0  0
   13.3210   -2.6240   -0.8100 C   0  0  0  0  0  0  0  0  0  0  0  0
   12.4590   -2.6680   -1.6280 O   0  0  0  0  0  0  0  0  0  0  0  0
   11.6450   -2.2810    2.1850 H   0  0  0  0  0  0  0  0  0  0  0  0
   11.7160   -0.7220    1.2180 H   0  0  0  0  0  0  0  0  0  0  0  0
   10.9370   -2.2260    0.5050 H   0  0  0  0  0  0  0  0  0  0  0  0
   13.6070   -1.8780    3.3150 H   0  0  0  0  0  0  0  0  0  0  0  0
   16.2170   -2.9420    0.8940 H   0  0  0  0  0  0  0  0  0  0  0  0
   16.2690   -4.4540   -1.2510 H   0  0  0  0  0  0  0  0  0  0  0  0
   14.7360   -4.5610   -2.2380 H   0  0  0  0  0  0  0  0  0  0  0  0
   15.4230   -6.2470   -0.2610 H   0  0  0  0  0  0  0  0  0  0  0  0
   13.9780   -6.1160    1.7280 H   0  0  0  0  0  0  0  0  0  0  0  0
   13.3130   -4.5040    1.3070 H   0  0  0  0  0  0  0  0  0  0  0  0
   12.4620   -5.4160   -0.9500 H   0  0  0  0  0  0  0  0  0  0  0  0
   13.0460   -7.0730   -0.4530 H   0  0  0  0  0  0  0  0  0  0  0  0
   16.3460   -3.2770   -3.2330 H   0  0  0  0  0  0  0  0  0  0  0  0
   17.1380   -1.5360   -4.8020 H   0  0  0  0  0  0  0  0  0  0  0  0
   16.6860    0.8540   -4.3800 H   0  0  0  0  0  0  0  0  0  0  0  0
   16.0070    1.7690   -0.1410 H   0  0  0  0  0  0  0  0  0  0  0  0
   15.4930    4.1250    0.4070 H   0  0  0  0  0  0  0  0  0  0  0  0
   14.5950    5.6560   -1.3570 H   0  0  0  0  0  0  0  0  0  0  0  0
   14.7820    2.4200   -4.2380 H   0  0  0  0  0  0  0  0  0  0  0  0
   14.6620   -0.1970   -0.7100 H   0  0  0  0  0  0  0  0  0  0  0  0
   15.2980   -2.3140    3.1400 H   0  0  0  0  0  0  0  0  0  0  0  0
  1  2  1  0  0  0  0
  1 26  1  0  0  0  0
  1 27  1  0  0  0  0
  1 28  1  0  0  0  0
  2  3  1  0  0  0  0
  2 24  1  0  0  0  0
  3  4  1  0  0  0  0
  3  5  2  0  0  0  0
  4 29  1  0  0  0  0
  4 46  1  0  0  0  0
  5  6  1  0  0  0  0
  5 30  1  0  0  0  0
  6  7  1  6  0  0  0
  6 11  1  0  0  0  0
  6 24  1  0  0  0  0
  7  8  1  0  0  0  0
  7 31  1  0  0  0  0
  7 32  1  0  0  0  0
  8  9  1  0  0  0  0
  8 10  1  0  0  0  0
  8 33  1  0  0  0  0
  9 10  1  0  0  0  0
  9 34  1  0  0  0  0
  9 35  1  0  0  0  0
 10 36  1  0  0  0  0
 10 37  1  0  0  0  0
 11 12  2  0  0  0  0
 11 23  1  0  0  0  0
 12 13  1  0  0  0  0
 12 38  1  0  0  0  0
 13 14  2  0  0  0  0
 13 39  1  0  0  0  0
 14 15  1  0  0  0  0
 14 40  1  0  0  0  0
 15 16  1  0  0  0  0
 15 23  2  0  0  0  0
 16 17  2  0  0  0  0
 16 22  1  0  0  0  0
 17 18  1  0  0  0  0
 17 41  1  0  0  0  0
 18 19  2  0  0  0  0
 18 42  1  0  0  0  0
 19 20  1  0  0  0  0
 19 43  1  0  0  0  0
 20 21  1  0  0  0  0
 20 22  2  0  0  0  0
 22 44  1  0  0  0  0
 23 45  1  0  0  0  0
 24 25  2  0  0  0  0
M  CHG  1   5   1
M  END
$$$$
