p38a_3fmk
 OpenBabel02232411163D
Structure written by MMmdl.
 46 49  0  0  1  0  0  0  0  0999 V2000
   35.6840   35.5730   16.8640 C   0  0  0  0  0  0  0  0  0  0  0  0
   36.3540   36.0570   15.7450 C   0  0  0  0  0  0  0  0  0  0  0  0
   34.0820   35.0120   23.7970 C   0  0  0  0  0  0  0  0  0  0  0  0
   38.2790   36.5520   17.2010 C   0  0  0  0  0  0  0  0  0  0  0  0
   34.8000   39.3220   21.5380 C   0  0  0  0  0  0  0  0  0  0  0  0
   33.9790   39.1780   26.3380 C   0  0  1  0  0  0  0  0  0  0  0  0
   32.5640   39.6890   26.7780 C   0  0  0  0  0  0  0  0  0  0  0  0
   34.3770   39.1640   23.8370 C   0  0  0  0  0  0  0  0  0  0  0  0
   34.6260   35.0420   21.3300 C   0  0  0  0  0  0  0  0  0  0  0  0
   35.1540   35.8670   20.2100 C   0  0  0  0  0  0  0  0  0  0  0  0
   35.2090   37.2190   20.2300 C   0  0  0  0  0  0  0  0  0  0  0  0
   36.2720   35.6090   18.1450 C   0  0  0  0  0  0  0  0  0  0  0  0
   37.5710   36.0960   18.3190 C   0  0  0  0  0  0  0  0  0  0  0  0
   34.8400   37.9070   21.4370 C   0  0  0  0  0  0  0  0  0  0  0  0
   34.5230   37.1640   22.6150 C   0  0  0  0  0  0  0  0  0  0  0  0
   34.2990   39.8300   25.0400 N   0  0  0  0  0  0  0  0  0  0  0  0
   37.6460   36.5550   15.9550 C   0  0  0  0  0  0  0  0  0  0  0  0
   38.2840   37.0920   14.9180 F   0  0  0  0  0  0  0  0  0  0  0  0
   34.4690   35.0530   16.7520 F   0  0  0  0  0  0  0  0  0  0  0  0
   35.5210   35.0160   19.1700 O   0  0  0  0  0  0  0  0  0  0  0  0
   34.3680   33.8600   21.2720 O   0  0  0  0  0  0  0  0  0  0  0  0
   34.4200   35.7660   22.5570 N   0  0  0  0  0  0  0  0  0  0  0  0
   34.3020   37.7870   23.8200 N   0  0  0  0  0  0  0  0  0  0  0  0
   34.5670   39.9630   22.6940 N   0  0  0  0  0  0  0  0  0  0  0  0
   35.0540   39.5700   27.3540 C   0  0  0  0  0  0  0  0  0  0  0  0
   31.8930   38.7220   27.6680 N   0  0  0  0  0  0  0  0  0  0  0  0
   31.1570   37.6700   27.2120 N   0  0  0  0  0  0  0  0  0  0  0  0
   30.7770   37.0130   28.3430 C   0  0  0  0  0  0  0  0  0  0  0  0
   31.3030   37.6940   29.4750 N   0  0  0  0  0  0  0  0  0  0  0  0
   31.9720   38.7150   29.0400 N   0  0  0  0  0  0  0  0  0  0  0  0
   35.8870   36.0730   14.7580 H   0  0  0  0  0  0  0  0  0  0  0  0
   34.8140   35.2690   24.6110 H   0  0  0  0  0  0  0  0  0  0  0  0
   33.0500   35.2890   24.1460 H   0  0  0  0  0  0  0  0  0  0  0  0
   34.1240   33.9090   23.6040 H   0  0  0  0  0  0  0  0  0  0  0  0
   39.2990   36.9310   17.3140 H   0  0  0  0  0  0  0  0  0  0  0  0
   34.9540   39.9440   20.6410 H   0  0  0  0  0  0  0  0  0  0  0  0
   33.9590   38.0600   26.2160 H   0  0  0  0  0  0  0  0  0  0  0  0
   32.6770   40.6710   27.3200 H   0  0  0  0  0  0  0  0  0  0  0  0
   31.9200   39.8540   25.8670 H   0  0  0  0  0  0  0  0  0  0  0  0
   35.5460   37.8180   19.3810 H   0  0  0  0  0  0  0  0  0  0  0  0
   38.0290   36.1510   19.3090 H   0  0  0  0  0  0  0  0  0  0  0  0
   34.2450   40.8680   25.0530 H   0  0  0  0  0  0  0  0  0  0  0  0
   36.0390   39.1490   27.0460 H   0  0  0  0  0  0  0  0  0  0  0  0
   35.1540   40.6810   27.4250 H   0  0  0  0  0  0  0  0  0  0  0  0
   34.7990   39.1770   28.3630 H   0  0  0  0  0  0  0  0  0  0  0  0
   30.1670   36.1120   28.3930 H   0  0  0  0  0  0  0  0  0  0  0  0
  1  2  2  0  0  0  0
  1 12  1  0  0  0  0
  1 19  1  0  0  0  0
  2 17  1  0  0  0  0
  2 31  1  0  0  0  0
  3 22  1  0  0  0  0
  3 32  1  0  0  0  0
  3 33  1  0  0  0  0
  3 34  1  0  0  0  0
  4 13  1  0  0  0  0
  4 17  2  0  0  0  0
  4 35  1  0  0  0  0
  5 14  2  0  0  0  0
  5 24  1  0  0  0  0
  5 36  1  0  0  0  0
  6  7  1  0  0  0  0
  6 16  1  0  0  0  0
  6 25  1  0  0  0  0
  6 37  1  6  0  0  0
  7 26  1  0  0  0  0
  7 38  1  0  0  0  0
  7 39  1  0  0  0  0
  8 16  1  0  0  0  0
  8 23  1  0  0  0  0
  8 24  2  0  0  0  0
  9 10  1  0  0  0  0
  9 21  2  0  0  0  0
  9 22  1  0  0  0  0
 10 11  2  0  0  0  0
 10 20  1  0  0  0  0
 11 14  1  0  0  0  0
 11 40  1  0  0  0  0
 12 13  2  0  0  0  0
 12 20  1  0  0  0  0
 13 41  1  0  0  0  0
 14 15  1  0  0  0  0
 15 22  1  0  0  0  0
 15 23  2  0  0  0  0
 16 42  1  0  0  0  0
 17 18  1  0  0  0  0
 25 43  1  0  0  0  0
 25 44  1  0  0  0  0
 25 45  1  0  0  0  0
 26 27  1  0  0  0  0
 26 30  1  0  0  0  0
 27 28  2  0  0  0  0
 28 29  1  0  0  0  0
 28 46  1  0  0  0  0
 29 30  2  0  0  0  0
M  END
$$$$
