p38a_2aa
 OpenBabel02232411163D
Structure written by MMmdl.
 43 45  0  0  0  0  0  0  0  0999 V2000
   36.3140   35.9460   15.9320 C   0  0  0  0  0  0  0  0  0  0  0  0
   34.6080   35.0720   21.5610 C   0  0  0  0  0  0  0  0  0  0  0  0
   35.6290   35.5120   17.0640 C   0  0  0  0  0  0  0  0  0  0  0  0
   34.3920   39.2270   24.0250 C   0  0  0  0  0  0  0  0  0  0  0  0
   33.8980   39.2600   26.4930 C   0  0  0  0  0  0  0  0  0  0  0  0
   34.8560   37.9350   21.6400 C   0  0  0  0  0  0  0  0  0  0  0  0
   35.1990   37.2320   20.4320 C   0  0  0  0  0  0  0  0  0  0  0  0
   37.6110   36.4330   16.1360 C   0  0  0  0  0  0  0  0  0  0  0  0
   38.2380   36.4590   17.3850 C   0  0  0  0  0  0  0  0  0  0  0  0
   37.5180   36.0450   18.5110 C   0  0  0  0  0  0  0  0  0  0  0  0
   34.5460   37.2070   22.8270 C   0  0  0  0  0  0  0  0  0  0  0  0
   34.8220   39.3510   21.7250 C   0  0  0  0  0  0  0  0  0  0  0  0
   35.1240   35.8820   20.4230 C   0  0  0  0  0  0  0  0  0  0  0  0
   36.2120   35.5740   18.3450 C   0  0  0  0  0  0  0  0  0  0  0  0
   34.1130   35.0640   24.0360 C   0  0  0  0  0  0  0  0  0  0  0  0
   34.4060   35.0100   16.9600 F   0  0  0  0  0  0  0  0  0  0  0  0
   35.4480   35.0180   19.3810 O   0  0  0  0  0  0  0  0  0  0  0  0
   34.5870   40.0050   22.8750 N   0  0  0  0  0  0  0  0  0  0  0  0
   34.3360   33.8930   21.5210 O   0  0  0  0  0  0  0  0  0  0  0  0
   34.4330   35.8110   22.7880 N   0  0  0  0  0  0  0  0  0  0  0  0
   34.3200   37.8500   24.0230 N   0  0  0  0  0  0  0  0  0  0  0  0
   34.3420   39.9180   25.2320 N   0  0  0  0  0  0  0  0  0  0  0  0
   35.8550   35.9350   14.9400 H   0  0  0  0  0  0  0  0  0  0  0  0
   34.4730   40.0870   27.6780 C   0  0  0  0  0  0  0  0  0  0  0  0
   35.5280   37.8200   19.5700 H   0  0  0  0  0  0  0  0  0  0  0  0
   39.2630   36.8260   17.4880 H   0  0  0  0  0  0  0  0  0  0  0  0
   37.9730   36.1140   19.5020 H   0  0  0  0  0  0  0  0  0  0  0  0
   34.9780   39.9610   20.8200 H   0  0  0  0  0  0  0  0  0  0  0  0
   34.7560   35.4310   24.8820 H   0  0  0  0  0  0  0  0  0  0  0  0
   33.0360   35.2170   24.3130 H   0  0  0  0  0  0  0  0  0  0  0  0
   34.3040   33.9680   23.8900 H   0  0  0  0  0  0  0  0  0  0  0  0
   34.0830   40.9300   25.1920 H   0  0  0  0  0  0  0  0  0  0  0  0
   38.2650   36.9270   15.0870 F   0  0  0  0  0  0  0  0  0  0  0  0
   32.3550   39.1910   26.6150 C   0  0  0  0  0  0  0  0  0  0  0  0
   31.7430   38.3480   25.6290 O   0  0  0  0  0  0  0  0  0  0  0  0
   32.4240   37.7410   25.2470 H   0  0  0  0  0  0  0  0  0  0  0  0
   32.0780   38.7750   27.6160 H   0  0  0  0  0  0  0  0  0  0  0  0
   31.8920   40.1930   26.4520 H   0  0  0  0  0  0  0  0  0  0  0  0
   35.9000   39.9910   27.7390 O   0  0  0  0  0  0  0  0  0  0  0  0
   34.1820   41.1630   27.6000 H   0  0  0  0  0  0  0  0  0  0  0  0
   34.1370   39.6540   28.6510 H   0  0  0  0  0  0  0  0  0  0  0  0
   36.2650   40.2290   26.8520 H   0  0  0  0  0  0  0  0  0  0  0  0
   34.3310   38.2200   26.5440 H   0  0  0  0  0  0  0  0  0  0  0  0
  1  3  2  0  0  0  0
  1  8  1  0  0  0  0
  1 23  1  0  0  0  0
  2 13  1  0  0  0  0
  2 19  2  0  0  0  0
  2 20  1  0  0  0  0
  3 14  1  0  0  0  0
  3 16  1  0  0  0  0
  4 18  2  0  0  0  0
  4 21  1  0  0  0  0
  4 22  1  0  0  0  0
  5 22  1  0  0  0  0
  5 24  1  0  0  0  0
  5 34  1  0  0  0  0
  5 43  1  0  0  0  0
  6  7  1  0  0  0  0
  6 11  1  0  0  0  0
  6 12  2  0  0  0  0
  7 13  2  0  0  0  0
  7 25  1  0  0  0  0
  8  9  2  0  0  0  0
  8 33  1  0  0  0  0
  9 10  1  0  0  0  0
  9 26  1  0  0  0  0
 10 14  2  0  0  0  0
 10 27  1  0  0  0  0
 11 20  1  0  0  0  0
 11 21  2  0  0  0  0
 12 18  1  0  0  0  0
 12 28  1  0  0  0  0
 13 17  1  0  0  0  0
 14 17  1  0  0  0  0
 15 20  1  0  0  0  0
 15 29  1  0  0  0  0
 15 30  1  0  0  0  0
 15 31  1  0  0  0  0
 22 32  1  0  0  0  0
 24 39  1  0  0  0  0
 24 40  1  0  0  0  0
 24 41  1  0  0  0  0
 34 35  1  0  0  0  0
 34 37  1  0  0  0  0
 34 38  1  0  0  0  0
 35 36  1  0  0  0  0
 39 42  1  0  0  0  0
M  END
$$$$
