p38a_2bb
 OpenBabel02232411163D
Structure written by MMmdl.
 44 46  0  0  0  0  0  0  0  0999 V2000
   38.2450   36.5080   17.2040 C   0  0  0  0  0  0  0  0  0  0  0  0
   34.6120   35.1190   21.3400 C   0  0  0  0  0  0  0  0  0  0  0  0
   37.4570   36.0680   18.2650 C   0  0  0  0  0  0  0  0  0  0  0  0
   34.3450   39.2020   23.9170 C   0  0  0  0  0  0  0  0  0  0  0  0
   33.8510   39.1520   26.3880 C   0  0  0  0  0  0  0  0  0  0  0  0
   34.7500   37.9910   21.4760 C   0  0  0  0  0  0  0  0  0  0  0  0
   35.0580   37.3290   20.2370 C   0  0  0  0  0  0  0  0  0  0  0  0
   37.6000   36.6550   15.9680 C   0  0  0  0  0  0  0  0  0  0  0  0
   36.2500   36.3590   15.7640 C   0  0  0  0  0  0  0  0  0  0  0  0
   35.4820   35.9120   16.8440 C   0  0  0  0  0  0  0  0  0  0  0  0
   34.4870   37.2250   22.6510 C   0  0  0  0  0  0  0  0  0  0  0  0
   34.7080   39.4030   21.6080 C   0  0  0  0  0  0  0  0  0  0  0  0
   35.0360   35.9770   20.2010 C   0  0  0  0  0  0  0  0  0  0  0  0
   36.0910   35.7590   18.0930 C   0  0  0  0  0  0  0  0  0  0  0  0
   34.0990   35.0540   23.8140 C   0  0  0  0  0  0  0  0  0  0  0  0
   37.9910   35.9380   19.4720 F   0  0  0  0  0  0  0  0  0  0  0  0
   35.3580   35.1540   19.1240 O   0  0  0  0  0  0  0  0  0  0  0  0
   34.5090   40.0200   22.7850 N   0  0  0  0  0  0  0  0  0  0  0  0
   34.4300   33.9220   21.2950 O   0  0  0  0  0  0  0  0  0  0  0  0
   34.4170   35.8270   22.5800 N   0  0  0  0  0  0  0  0  0  0  0  0
   34.2850   37.8260   23.8720 N   0  0  0  0  0  0  0  0  0  0  0  0
   34.3040   39.8430   25.1430 N   0  0  0  0  0  0  0  0  0  0  0  0
   39.3010   36.7620   17.3350 H   0  0  0  0  0  0  0  0  0  0  0  0
   34.0590   38.0480   26.3130 H   0  0  0  0  0  0  0  0  0  0  0  0
   35.3140   37.9450   19.3720 H   0  0  0  0  0  0  0  0  0  0  0  0
   35.7830   36.4890   14.7850 H   0  0  0  0  0  0  0  0  0  0  0  0
   34.4160   35.7010   16.7060 H   0  0  0  0  0  0  0  0  0  0  0  0
   34.8280   40.0460   20.7200 H   0  0  0  0  0  0  0  0  0  0  0  0
   34.7900   35.3590   24.6470 H   0  0  0  0  0  0  0  0  0  0  0  0
   33.0440   35.2680   24.1360 H   0  0  0  0  0  0  0  0  0  0  0  0
   34.2140   33.9550   23.6240 H   0  0  0  0  0  0  0  0  0  0  0  0
   34.1370   40.8690   25.1610 H   0  0  0  0  0  0  0  0  0  0  0  0
   38.3030   37.1390   14.9470 F   0  0  0  0  0  0  0  0  0  0  0  0
   34.6040   39.7620   27.5770 C   0  0  0  0  0  0  0  0  0  0  0  0
   32.7420   39.3160   26.4950 H   0  0  0  0  0  0  0  0  0  0  0  0
   35.6960   39.5210   27.4680 H   0  0  0  0  0  0  0  0  0  0  0  0
   34.5310   40.8860   27.5060 H   0  0  0  0  0  0  0  0  0  0  0  0
   32.3660   39.8190   29.2270 C   0  0  0  0  0  0  0  0  0  0  0  0
   34.0100   39.2550   29.1600 S   0  0  0  0  0  0  0  0  0  0  0  0
   34.0690   37.7830   29.3220 O   0  0  0  0  0  0  0  0  0  0  0  0
   34.8270   39.9140   30.2150 O   0  0  0  0  0  0  0  0  0  0  0  0
   32.2870   40.8970   28.9360 H   0  0  0  0  0  0  0  0  0  0  0  0
   31.6860   39.2360   28.5540 H   0  0  0  0  0  0  0  0  0  0  0  0
   31.9300   39.7340   30.2570 H   0  0  0  0  0  0  0  0  0  0  0  0
  1  3  2  0  0  0  0
  1  8  1  0  0  0  0
  1 23  1  0  0  0  0
  2 13  1  0  0  0  0
  2 19  2  0  0  0  0
  2 20  1  0  0  0  0
  3 14  1  0  0  0  0
  3 16  1  0  0  0  0
  4 18  2  0  0  0  0
  4 21  1  0  0  0  0
  4 22  1  0  0  0  0
  5 22  1  0  0  0  0
  5 24  1  0  0  0  0
  5 34  1  0  0  0  0
  5 35  1  0  0  0  0
  6  7  1  0  0  0  0
  6 11  1  0  0  0  0
  6 12  2  0  0  0  0
  7 13  2  0  0  0  0
  7 25  1  0  0  0  0
  8  9  2  0  0  0  0
  8 33  1  0  0  0  0
  9 10  1  0  0  0  0
  9 26  1  0  0  0  0
 10 14  2  0  0  0  0
 10 27  1  0  0  0  0
 11 20  1  0  0  0  0
 11 21  2  0  0  0  0
 12 18  1  0  0  0  0
 12 28  1  0  0  0  0
 13 17  1  0  0  0  0
 14 17  1  0  0  0  0
 15 20  1  0  0  0  0
 15 29  1  0  0  0  0
 15 30  1  0  0  0  0
 15 31  1  0  0  0  0
 22 32  1  0  0  0  0
 34 36  1  0  0  0  0
 34 37  1  0  0  0  0
 34 39  1  0  0  0  0
 38 39  1  0  0  0  0
 38 42  1  0  0  0  0
 38 43  1  0  0  0  0
 38 44  1  0  0  0  0
 39 40  2  0  0  0  0
 39 41  2  0  0  0  0
M  END
$$$$
