CAT-17d
 OpenBabel02232411143D
Structure written by MMmdl.
 42 45  0  0  1  0  0  0  0  0999 V2000
   11.6290   -2.3240    1.2390 C   0  0  0  0  0  0  0  0  0  0  0  0
   12.9790   -2.2910    0.6400 N   0  0  0  0  0  0  0  0  0  0  0  0
   14.1630   -2.3070    1.3680 C   0  0  0  0  0  0  0  0  0  0  0  0
   14.3030   -2.4310    2.7180 N   0  0  0  0  0  0  0  0  0  0  0  0
   15.2610   -2.2310    0.4960 N   0  3  0  0  0  0  0  0  0  0  0  0
   14.8180   -2.5570   -0.9120 C   0  0  1  0  0  0  0  0  0  0  0  0
   15.4110   -1.5500   -1.8730 C   0  0  0  0  0  0  0  0  0  0  0  0
   16.2540   -1.9540   -2.9150 C   0  0  0  0  0  0  0  0  0  0  0  0
   16.7070   -1.0080   -3.8410 C   0  0  0  0  0  0  0  0  0  0  0  0
   16.3400    0.3340   -3.7260 C   0  0  0  0  0  0  0  0  0  0  0  0
   15.5410    0.7560   -2.6490 C   0  0  0  0  0  0  0  0  0  0  0  0
   15.1720    2.1730   -2.4780 C   0  0  0  0  0  0  0  0  0  0  0  0
   15.3600    2.8160   -1.2430 C   0  0  0  0  0  0  0  0  0  0  0  0
   14.9190    4.1290   -1.0780 C   0  0  0  0  0  0  0  0  0  0  0  0
   14.2970    4.7760   -2.1600 C   0  0  0  0  0  0  0  0  0  0  0  0
   14.1490    4.1830   -3.3750 N   0  0  0  0  0  0  0  0  0  0  0  0
   14.5860    2.9090   -3.5330 C   0  0  0  0  0  0  0  0  0  0  0  0
   15.0760   -0.1950   -1.7270 C   0  0  0  0  0  0  0  0  0  0  0  0
   15.0300   -4.0200   -1.2750 C   0  0  0  0  0  0  0  0  0  0  0  0
   16.2540   -4.7740   -0.7870 C   0  0  0  0  0  0  0  0  0  0  0  0
   14.8930   -5.1180   -0.2260 C   0  0  0  0  0  0  0  0  0  0  0  0
   13.2660   -2.3730   -0.8120 C   0  0  0  0  0  0  0  0  0  0  0  0
   12.4060   -2.3060   -1.6280 O   0  0  0  0  0  0  0  0  0  0  0  0
   11.1480   -1.3160    1.1250 H   0  0  0  0  0  0  0  0  0  0  0  0
   11.0110   -3.1020    0.7130 H   0  0  0  0  0  0  0  0  0  0  0  0
   11.6780   -2.5920    2.3270 H   0  0  0  0  0  0  0  0  0  0  0  0
   13.5830   -2.0550    3.3850 H   0  0  0  0  0  0  0  0  0  0  0  0
   16.1880   -2.5900    0.8580 H   0  0  0  0  0  0  0  0  0  0  0  0
   16.5610   -2.9970   -3.0070 H   0  0  0  0  0  0  0  0  0  0  0  0
   17.3590   -1.3250   -4.6620 H   0  0  0  0  0  0  0  0  0  0  0  0
   16.6850    1.0520   -4.4760 H   0  0  0  0  0  0  0  0  0  0  0  0
   15.8400    2.2850   -0.4160 H   0  0  0  0  0  0  0  0  0  0  0  0
   15.0430    4.6310   -0.1150 H   0  0  0  0  0  0  0  0  0  0  0  0
   13.8930    5.7950   -2.0520 H   0  0  0  0  0  0  0  0  0  0  0  0
   14.4530    2.4540   -4.5280 H   0  0  0  0  0  0  0  0  0  0  0  0
   14.4570    0.1170   -0.8850 H   0  0  0  0  0  0  0  0  0  0  0  0
   14.6630   -4.2470   -2.2920 H   0  0  0  0  0  0  0  0  0  0  0  0
   16.9800   -4.2610   -0.1520 H   0  0  0  0  0  0  0  0  0  0  0  0
   16.7620   -5.4500   -1.4740 H   0  0  0  0  0  0  0  0  0  0  0  0
   14.6700   -4.8540    0.8140 H   0  0  0  0  0  0  0  0  0  0  0  0
   14.4030   -6.0560   -0.5220 H   0  0  0  0  0  0  0  0  0  0  0  0
   15.2800   -2.3750    3.1260 H   0  0  0  0  0  0  0  0  0  0  0  0
  1  2  1  0  0  0  0
  1 24  1  0  0  0  0
  1 25  1  0  0  0  0
  1 26  1  0  0  0  0
  2  3  1  0  0  0  0
  2 22  1  0  0  0  0
  3  4  1  0  0  0  0
  3  5  2  0  0  0  0
  4 27  1  0  0  0  0
  4 42  1  0  0  0  0
  5  6  1  0  0  0  0
  5 28  1  0  0  0  0
  6  7  1  6  0  0  0
  6 19  1  0  0  0  0
  6 22  1  0  0  0  0
  7  8  2  0  0  0  0
  7 18  1  0  0  0  0
  8  9  1  0  0  0  0
  8 29  1  0  0  0  0
  9 10  2  0  0  0  0
  9 30  1  0  0  0  0
 10 11  1  0  0  0  0
 10 31  1  0  0  0  0
 11 12  1  0  0  0  0
 11 18  2  0  0  0  0
 12 13  2  0  0  0  0
 12 17  1  0  0  0  0
 13 14  1  0  0  0  0
 13 32  1  0  0  0  0
 14 15  2  0  0  0  0
 14 33  1  0  0  0  0
 15 16  1  0  0  0  0
 15 34  1  0  0  0  0
 16 17  2  0  0  0  0
 17 35  1  0  0  0  0
 18 36  1  0  0  0  0
 19 20  1  0  0  0  0
 19 21  1  0  0  0  0
 19 37  1  0  0  0  0
 20 21  1  0  0  0  0
 20 38  1  0  0  0  0
 20 39  1  0  0  0  0
 21 40  1  0  0  0  0
 21 41  1  0  0  0  0
 22 23  2  0  0  0  0
M  CHG  1   5   1
M  END
$$$$
