p38a_2m
 OpenBabel02232411163D
Structure written by MMmdl.
 50 54  0  0  0  0  0  0  0  0999 V2000
   38.2940   36.5690   17.1290 C   0  0  0  0  0  0  0  0  0  0  0  0
   34.5240   35.0430   21.1380 C   0  0  0  0  0  0  0  0  0  0  0  0
   37.4970   36.1090   18.1740 C   0  0  0  0  0  0  0  0  0  0  0  0
   33.9660   39.0330   23.8300 C   0  0  0  0  0  0  0  0  0  0  0  0
   34.6430   37.9170   21.3950 C   0  0  0  0  0  0  0  0  0  0  0  0
   35.0500   37.3020   20.1610 C   0  0  0  0  0  0  0  0  0  0  0  0
   37.6610   36.7420   15.8910 C   0  0  0  0  0  0  0  0  0  0  0  0
   36.3120   36.4550   15.6680 C   0  0  0  0  0  0  0  0  0  0  0  0
   35.5350   35.9810   16.7300 C   0  0  0  0  0  0  0  0  0  0  0  0
   34.2220   37.1090   22.4930 C   0  0  0  0  0  0  0  0  0  0  0  0
   34.6570   39.3230   21.6060 C   0  0  0  0  0  0  0  0  0  0  0  0
   35.0190   35.9530   20.0680 C   0  0  0  0  0  0  0  0  0  0  0  0
   36.1330   35.8000   17.9800 C   0  0  0  0  0  0  0  0  0  0  0  0
   38.0160   35.9590   19.3850 F   0  0  0  0  0  0  0  0  0  0  0  0
   35.3970   35.1620   18.9850 O   0  0  0  0  0  0  0  0  0  0  0  0
   34.3370   39.8950   22.7770 N   0  0  0  0  0  0  0  0  0  0  0  0
   34.4410   33.8390   21.0410 O   0  0  0  0  0  0  0  0  0  0  0  0
   34.1350   35.7090   22.3540 N   0  0  0  0  0  0  0  0  0  0  0  0
   33.9030   37.6550   23.7070 N   0  0  0  0  0  0  0  0  0  0  0  0
   33.6170   39.5950   25.0340 N   0  0  0  0  0  0  0  0  0  0  0  0
   39.3490   36.8180   17.2770 H   0  0  0  0  0  0  0  0  0  0  0  0
   35.3830   37.9480   19.3460 H   0  0  0  0  0  0  0  0  0  0  0  0
   35.8540   36.6110   14.6900 H   0  0  0  0  0  0  0  0  0  0  0  0
   34.4720   35.7700   16.5760 H   0  0  0  0  0  0  0  0  0  0  0  0
   34.9370   39.9960   20.7790 H   0  0  0  0  0  0  0  0  0  0  0  0
   33.7070   40.6170   25.1750 H   0  0  0  0  0  0  0  0  0  0  0  0
   38.3720   37.2440   14.8850 F   0  0  0  0  0  0  0  0  0  0  0  0
   33.1360   40.4870   28.1230 C   0  0  0  0  0  0  0  0  0  0  0  0
   32.3350   39.6020   27.1600 C   0  0  0  0  0  0  0  0  0  0  0  0
   33.2150   38.7590   26.2120 C   0  0  0  0  0  0  0  0  0  0  0  0
   34.4380   38.1680   26.9430 C   0  0  0  0  0  0  0  0  0  0  0  0
   35.1380   39.1920   27.8370 C   0  0  0  0  0  0  0  0  0  0  0  0
   34.2040   39.7720   28.7790 O   0  0  0  0  0  0  0  0  0  0  0  0
   32.5060   40.8160   28.9800 H   0  0  0  0  0  0  0  0  0  0  0  0
   33.5760   41.3580   27.5890 H   0  0  0  0  0  0  0  0  0  0  0  0
   31.6540   40.2540   26.5580 H   0  0  0  0  0  0  0  0  0  0  0  0
   31.7000   38.8920   27.7460 H   0  0  0  0  0  0  0  0  0  0  0  0
   32.5870   37.9030   25.8220 H   0  0  0  0  0  0  0  0  0  0  0  0
   34.0750   37.3100   27.5660 H   0  0  0  0  0  0  0  0  0  0  0  0
   35.1690   37.7560   26.2050 H   0  0  0  0  0  0  0  0  0  0  0  0
   35.8820   38.7090   28.5100 H   0  0  0  0  0  0  0  0  0  0  0  0
   35.5950   40.0090   27.2330 H   0  0  0  0  0  0  0  0  0  0  0  0
   33.6810   34.9130   23.5160 C   0  0  0  0  0  0  0  0  0  0  0  0
   32.6370   33.8170   23.3420 C   0  0  0  0  0  0  0  0  0  0  0  0
   32.2650   35.1010   24.0540 C   0  0  0  0  0  0  0  0  0  0  0  0
   34.5010   34.7660   24.2460 H   0  0  0  0  0  0  0  0  0  0  0  0
   32.1910   33.6140   22.3600 H   0  0  0  0  0  0  0  0  0  0  0  0
   32.7660   32.9000   23.9380 H   0  0  0  0  0  0  0  0  0  0  0  0
   31.5740   35.8040   23.5710 H   0  0  0  0  0  0  0  0  0  0  0  0
   32.1330   35.0970   25.1470 H   0  0  0  0  0  0  0  0  0  0  0  0
  1  3  2  0  0  0  0
  1  7  1  0  0  0  0
  1 21  1  0  0  0  0
  2 12  1  0  0  0  0
  2 17  2  0  0  0  0
  2 18  1  0  0  0  0
  3 13  1  0  0  0  0
  3 14  1  0  0  0  0
  4 16  2  0  0  0  0
  4 19  1  0  0  0  0
  4 20  1  0  0  0  0
  5  6  1  0  0  0  0
  5 10  1  0  0  0  0
  5 11  2  0  0  0  0
  6 12  2  0  0  0  0
  6 22  1  0  0  0  0
  7  8  2  0  0  0  0
  7 27  1  0  0  0  0
  8  9  1  0  0  0  0
  8 23  1  0  0  0  0
  9 13  2  0  0  0  0
  9 24  1  0  0  0  0
 10 18  1  0  0  0  0
 10 19  2  0  0  0  0
 11 16  1  0  0  0  0
 11 25  1  0  0  0  0
 12 15  1  0  0  0  0
 13 15  1  0  0  0  0
 18 43  1  0  0  0  0
 20 26  1  0  0  0  0
 20 30  1  0  0  0  0
 28 29  1  0  0  0  0
 28 33  1  0  0  0  0
 28 34  1  0  0  0  0
 28 35  1  0  0  0  0
 29 30  1  0  0  0  0
 29 36  1  0  0  0  0
 29 37  1  0  0  0  0
 30 31  1  0  0  0  0
 30 38  1  0  0  0  0
 31 32  1  0  0  0  0
 31 39  1  0  0  0  0
 31 40  1  0  0  0  0
 32 33  1  0  0  0  0
 32 41  1  0  0  0  0
 32 42  1  0  0  0  0
 43 44  1  0  0  0  0
 43 45  1  0  0  0  0
 43 46  1  0  0  0  0
 44 45  1  0  0  0  0
 44 47  1  0  0  0  0
 44 48  1  0  0  0  0
 45 49  1  0  0  0  0
 45 50  1  0  0  0  0
M  END
$$$$
