p38a_2x
 OpenBabel02232411163D
Structure written by MMmdl.
 43 46  0  0  1  0  0  0  0  0999 V2000
   38.2870   36.5430   17.1460 C   0  0  0  0  0  0  0  0  0  0  0  0
   34.5130   35.1000   21.1990 C   0  0  0  0  0  0  0  0  0  0  0  0
   37.5020   36.0810   18.1990 C   0  0  0  0  0  0  0  0  0  0  0  0
   33.9460   39.1960   23.7090 C   0  0  0  0  0  0  0  0  0  0  0  0
   34.6440   37.9750   21.3390 C   0  0  0  0  0  0  0  0  0  0  0  0
   35.0570   37.3080   20.1350 C   0  0  0  0  0  0  0  0  0  0  0  0
   37.6400   36.7060   15.9130 C   0  0  0  0  0  0  0  0  0  0  0  0
   36.2920   36.4040   15.7040 C   0  0  0  0  0  0  0  0  0  0  0  0
   35.5290   35.9270   16.7750 C   0  0  0  0  0  0  0  0  0  0  0  0
   34.2200   37.2170   22.4710 C   0  0  0  0  0  0  0  0  0  0  0  0
   34.6500   39.3880   21.4760 C   0  0  0  0  0  0  0  0  0  0  0  0
   35.0240   35.9560   20.0950 C   0  0  0  0  0  0  0  0  0  0  0  0
   36.1410   35.7570   18.0200 C   0  0  0  0  0  0  0  0  0  0  0  0
   33.6780   35.0480   23.5780 C   0  0  0  0  0  0  0  0  0  0  0  0
   38.0320   35.9440   19.4080 F   0  0  0  0  0  0  0  0  0  0  0  0
   35.4210   35.1300   19.0460 O   0  0  0  0  0  0  0  0  0  0  0  0
   34.3210   40.0080   22.6190 N   0  0  0  0  0  0  0  0  0  0  0  0
   34.3900   33.8960   21.1560 O   0  0  0  0  0  0  0  0  0  0  0  0
   34.1490   35.8170   22.3930 N   0  0  0  0  0  0  0  0  0  0  0  0
   33.8690   37.8230   23.6550 N   0  0  0  0  0  0  0  0  0  0  0  0
   33.7100   39.8650   24.8970 N   0  0  0  0  0  0  0  0  0  0  0  0
   39.3400   36.8050   17.2830 H   0  0  0  0  0  0  0  0  0  0  0  0
   35.3940   37.9200   19.2960 H   0  0  0  0  0  0  0  0  0  0  0  0
   35.8230   36.5520   14.7290 H   0  0  0  0  0  0  0  0  0  0  0  0
   34.4660   35.7080   16.6320 H   0  0  0  0  0  0  0  0  0  0  0  0
   34.9190   40.0230   20.6170 H   0  0  0  0  0  0  0  0  0  0  0  0
   34.3540   35.2420   24.4540 H   0  0  0  0  0  0  0  0  0  0  0  0
   32.6370   35.3710   23.8490 H   0  0  0  0  0  0  0  0  0  0  0  0
   33.6740   33.9500   23.3520 H   0  0  0  0  0  0  0  0  0  0  0  0
   33.7410   40.9070   24.8740 H   0  0  0  0  0  0  0  0  0  0  0  0
   38.3380   37.2110   14.8990 F   0  0  0  0  0  0  0  0  0  0  0  0
   32.5710   37.4270   27.4180 O   0  0  0  0  0  0  0  0  0  0  0  0
   31.3850   37.5130   26.5740 C   0  0  0  0  0  0  0  0  0  0  0  0
   31.5350   38.7470   25.6710 C   0  0  0  0  0  0  0  0  0  0  0  0
   32.9140   39.3490   26.0380 C   0  0  1  0  0  0  0  0  0  0  0  0
   33.6290   38.2250   26.8330 C   0  0  0  0  0  0  0  0  0  0  0  0
   30.5420   37.6030   27.2930 H   0  0  0  0  0  0  0  0  0  0  0  0
   31.3320   36.5700   25.9880 H   0  0  0  0  0  0  0  0  0  0  0  0
   31.4850   38.4510   24.5990 H   0  0  0  0  0  0  0  0  0  0  0  0
   30.7270   39.4860   25.8550 H   0  0  0  0  0  0  0  0  0  0  0  0
   32.7640   40.2450   26.7090 H   0  0  0  0  0  0  0  0  0  0  0  0
   34.2030   38.6160   27.7000 H   0  0  0  0  0  0  0  0  0  0  0  0
   34.2420   37.5630   26.1830 H   0  0  0  0  0  0  0  0  0  0  0  0
  1  3  2  0  0  0  0
  1  7  1  0  0  0  0
  1 22  1  0  0  0  0
  2 12  1  0  0  0  0
  2 18  2  0  0  0  0
  2 19  1  0  0  0  0
  3 13  1  0  0  0  0
  3 15  1  0  0  0  0
  4 17  2  0  0  0  0
  4 20  1  0  0  0  0
  4 21  1  0  0  0  0
  5  6  1  0  0  0  0
  5 10  1  0  0  0  0
  5 11  2  0  0  0  0
  6 12  2  0  0  0  0
  6 23  1  0  0  0  0
  7  8  2  0  0  0  0
  7 31  1  0  0  0  0
  8  9  1  0  0  0  0
  8 24  1  0  0  0  0
  9 13  2  0  0  0  0
  9 25  1  0  0  0  0
 10 19  1  0  0  0  0
 10 20  2  0  0  0  0
 11 17  1  0  0  0  0
 11 26  1  0  0  0  0
 12 16  1  0  0  0  0
 13 16  1  0  0  0  0
 14 19  1  0  0  0  0
 14 27  1  0  0  0  0
 14 28  1  0  0  0  0
 14 29  1  0  0  0  0
 21 30  1  0  0  0  0
 21 35  1  0  0  0  0
 32 33  1  0  0  0  0
 32 36  1  0  0  0  0
 33 34  1  0  0  0  0
 33 37  1  0  0  0  0
 33 38  1  0  0  0  0
 34 35  1  0  0  0  0
 34 39  1  0  0  0  0
 34 40  1  0  0  0  0
 35 36  1  0  0  0  0
 35 41  1  1  0  0  0
 36 42  1  0  0  0  0
 36 43  1  0  0  0  0
M  END
$$$$
