p38a_2o
 OpenBabel02232411163D
Structure written by MMmdl.
 55 58  0  0  0  0  0  0  0  0999 V2000
   38.2740   36.5270   17.1740 C   0  0  0  0  0  0  0  0  0  0  0  0
   34.5480   35.0770   21.2550 C   0  0  0  0  0  0  0  0  0  0  0  0
   37.4900   36.0780   18.2340 C   0  0  0  0  0  0  0  0  0  0  0  0
   34.0180   39.1390   23.8380 C   0  0  0  0  0  0  0  0  0  0  0  0
   34.6660   37.9550   21.4290 C   0  0  0  0  0  0  0  0  0  0  0  0
   35.0540   37.3050   20.2060 C   0  0  0  0  0  0  0  0  0  0  0  0
   37.6250   36.6830   15.9410 C   0  0  0  0  0  0  0  0  0  0  0  0
   36.2740   36.3890   15.7390 C   0  0  0  0  0  0  0  0  0  0  0  0
   35.5110   35.9290   16.8170 C   0  0  0  0  0  0  0  0  0  0  0  0
   34.2790   37.1750   22.5570 C   0  0  0  0  0  0  0  0  0  0  0  0
   34.6600   39.3670   21.5950 C   0  0  0  0  0  0  0  0  0  0  0  0
   35.0290   35.9540   20.1530 C   0  0  0  0  0  0  0  0  0  0  0  0
   36.1250   35.7630   18.0610 C   0  0  0  0  0  0  0  0  0  0  0  0
   38.0240   35.9430   19.4400 F   0  0  0  0  0  0  0  0  0  0  0  0
   35.4050   35.1380   19.0880 O   0  0  0  0  0  0  0  0  0  0  0  0
   34.3580   39.9720   22.7540 N   0  0  0  0  0  0  0  0  0  0  0  0
   34.4400   33.8720   21.1970 O   0  0  0  0  0  0  0  0  0  0  0  0
   34.2230   35.7700   22.4760 N   0  0  0  0  0  0  0  0  0  0  0  0
   33.9660   37.7590   23.7560 N   0  0  0  0  0  0  0  0  0  0  0  0
   33.6980   39.7230   25.0390 N   0  0  0  0  0  0  0  0  0  0  0  0
   39.3290   36.7820   17.3060 H   0  0  0  0  0  0  0  0  0  0  0  0
   35.3650   37.9310   19.3660 H   0  0  0  0  0  0  0  0  0  0  0  0
   35.8030   36.5290   14.7630 H   0  0  0  0  0  0  0  0  0  0  0  0
   34.4450   35.7170   16.6810 H   0  0  0  0  0  0  0  0  0  0  0  0
   34.9080   40.0170   20.7390 H   0  0  0  0  0  0  0  0  0  0  0  0
   33.7550   40.7510   25.1560 H   0  0  0  0  0  0  0  0  0  0  0  0
   38.3240   37.1740   14.9210 F   0  0  0  0  0  0  0  0  0  0  0  0
   33.2610   40.6240   28.1480 C   0  0  0  0  0  0  0  0  0  0  0  0
   32.4480   39.7440   27.1890 C   0  0  0  0  0  0  0  0  0  0  0  0
   33.3100   38.8990   26.2300 C   0  0  0  0  0  0  0  0  0  0  0  0
   34.5490   38.3120   26.9380 C   0  0  0  0  0  0  0  0  0  0  0  0
   35.2630   39.3460   27.8080 C   0  0  0  0  0  0  0  0  0  0  0  0
   34.3490   39.9140   28.7760 O   0  0  0  0  0  0  0  0  0  0  0  0
   32.6410   40.9380   29.0190 H   0  0  0  0  0  0  0  0  0  0  0  0
   33.6800   41.5040   27.6130 H   0  0  0  0  0  0  0  0  0  0  0  0
   31.7620   40.3990   26.5960 H   0  0  0  0  0  0  0  0  0  0  0  0
   31.8130   39.0350   27.7780 H   0  0  0  0  0  0  0  0  0  0  0  0
   32.6730   38.0460   25.8520 H   0  0  0  0  0  0  0  0  0  0  0  0
   34.1980   37.4590   27.5740 H   0  0  0  0  0  0  0  0  0  0  0  0
   35.2590   37.8980   26.1820 H   0  0  0  0  0  0  0  0  0  0  0  0
   36.0330   38.8750   28.4590 H   0  0  0  0  0  0  0  0  0  0  0  0
   35.6870   40.1680   27.1880 H   0  0  0  0  0  0  0  0  0  0  0  0
   33.7280   34.9820   23.6630 C   0  0  0  0  0  0  0  0  0  0  0  0
   34.1340   33.9380   23.5660 H   0  0  0  0  0  0  0  0  0  0  0  0
   34.1420   35.4700   24.5940 H   0  0  0  0  0  0  0  0  0  0  0  0
   32.1990   34.9780   23.7060 C   0  0  0  0  0  0  0  0  0  0  0  0
   31.8450   36.0500   23.7340 H   0  0  0  0  0  0  0  0  0  0  0  0
   31.7870   34.5570   22.7490 H   0  0  0  0  0  0  0  0  0  0  0  0
   31.4980   34.1050   25.0790 S   0  0  0  0  0  0  0  0  0  0  0  0
   32.5300   33.7220   26.0650 O   0  0  0  0  0  0  0  0  0  0  0  0
   30.7990   32.8940   24.5880 O   0  0  0  0  0  0  0  0  0  0  0  0
   30.3700   35.2360   25.7490 C   0  0  0  0  0  0  0  0  0  0  0  0
   29.6170   35.5930   24.9970 H   0  0  0  0  0  0  0  0  0  0  0  0
   29.7770   34.8200   26.6070 H   0  0  0  0  0  0  0  0  0  0  0  0
   30.8690   36.1550   26.1580 H   0  0  0  0  0  0  0  0  0  0  0  0
  1  3  2  0  0  0  0
  1  7  1  0  0  0  0
  1 21  1  0  0  0  0
  2 12  1  0  0  0  0
  2 17  2  0  0  0  0
  2 18  1  0  0  0  0
  3 13  1  0  0  0  0
  3 14  1  0  0  0  0
  4 16  2  0  0  0  0
  4 19  1  0  0  0  0
  4 20  1  0  0  0  0
  5  6  1  0  0  0  0
  5 10  1  0  0  0  0
  5 11  2  0  0  0  0
  6 12  2  0  0  0  0
  6 22  1  0  0  0  0
  7  8  2  0  0  0  0
  7 27  1  0  0  0  0
  8  9  1  0  0  0  0
  8 23  1  0  0  0  0
  9 13  2  0  0  0  0
  9 24  1  0  0  0  0
 10 18  1  0  0  0  0
 10 19  2  0  0  0  0
 11 16  1  0  0  0  0
 11 25  1  0  0  0  0
 12 15  1  0  0  0  0
 13 15  1  0  0  0  0
 18 43  1  0  0  0  0
 20 26  1  0  0  0  0
 20 30  1  0  0  0  0
 28 29  1  0  0  0  0
 28 33  1  0  0  0  0
 28 34  1  0  0  0  0
 28 35  1  0  0  0  0
 29 30  1  0  0  0  0
 29 36  1  0  0  0  0
 29 37  1  0  0  0  0
 30 31  1  0  0  0  0
 30 38  1  0  0  0  0
 31 32  1  0  0  0  0
 31 39  1  0  0  0  0
 31 40  1  0  0  0  0
 32 33  1  0  0  0  0
 32 41  1  0  0  0  0
 32 42  1  0  0  0  0
 43 44  1  0  0  0  0
 43 45  1  0  0  0  0
 43 46  1  0  0  0  0
 46 47  1  0  0  0  0
 46 48  1  0  0  0  0
 46 49  1  0  0  0  0
 49 50  2  0  0  0  0
 49 51  2  0  0  0  0
 49 52  1  0  0  0  0
 52 53  1  0  0  0  0
 52 54  1  0  0  0  0
 52 55  1  0  0  0  0
M  END
$$$$
