21
                    3D
 Schrodinger Suite 2022-3.
 49 52  0  0  1  0  0  0  0  0999 V2000
    1.9570   28.8650    6.7140 C   0  0  0  0  0  0  0  0  0  0  0  0
   -1.5010   31.5310    7.8180 C   0  0  0  0  0  0  0  0  0  0  0  0
   -0.1910   26.0490    8.8150 C   0  0  0  0  0  0  0  0  0  0  0  0
   -1.0180   25.4410    9.9550 C   0  0  0  0  0  0  0  0  0  0  0  0
   -1.0010   23.9050    9.7890 C   0  0  0  0  0  0  0  0  0  0  0  0
   -1.7370   23.2230   10.9500 C   0  0  0  0  0  0  0  0  0  0  0  0
   -1.1600   23.6380   12.3120 C   0  0  0  0  0  0  0  0  0  0  0  0
   -1.1880   25.1660   12.4820 C   0  0  0  0  0  0  0  0  0  0  0  0
   -0.4580   25.8680   11.3260 C   0  0  0  0  0  0  0  0  0  0  0  0
    4.4280   25.1230    7.2750 C   0  0  0  0  0  0  0  0  0  0  0  0
    5.4250   24.8790    6.3110 C   0  0  0  0  0  0  0  0  0  0  0  0
    5.6150   25.8320    5.3130 C   0  0  0  0  0  0  0  0  0  0  0  0
    4.8430   26.9930    5.2730 C   0  0  0  0  0  0  0  0  0  0  0  0
    1.2200   27.9290    7.4360 N   0  0  0  0  0  0  0  0  0  0  0  0
    0.0220   28.2920    7.9650 C   0  0  0  0  0  0  0  0  0  0  0  0
   -0.7180   27.4240    8.6700 O   0  0  0  0  0  0  0  0  0  0  0  0
   -0.4720   29.6110    7.7930 C   0  0  0  0  0  0  0  0  0  0  0  0
   -1.6240   30.2710    8.2380 N   0  0  0  0  0  0  0  0  0  0  0  0
   -0.2640   31.7520    7.1130 N   0  0  0  0  0  0  0  0  0  0  0  0
    0.3860   30.5220    7.0570 C   0  0  0  0  0  0  0  0  0  0  0  0
    1.5810   30.1820    6.4790 N   0  0  0  0  0  0  0  0  0  0  0  0
    3.1730   28.4780    6.1600 N   0  0  0  0  0  0  0  0  0  0  0  0
    3.8690   27.2320    6.2680 C   0  0  0  0  0  0  0  0  0  0  0  0
    3.6730   26.3030    7.2990 C   0  0  0  0  0  0  0  0  0  0  0  0
   -2.2050   32.3430    7.9710 H   0  0  0  0  0  0  0  0  0  0  0  0
   -0.3860   25.5550    7.8420 H   0  0  0  0  0  0  0  0  0  0  0  0
    0.8890   26.0980    9.0670 H   0  0  0  0  0  0  0  0  0  0  0  0
   -2.0750   25.8020    9.8760 H   0  0  0  0  0  0  0  0  0  0  0  0
    0.0530   23.5410    9.7710 H   0  0  0  0  0  0  0  0  0  0  0  0
   -1.5000   23.6290    8.8330 H   0  0  0  0  0  0  0  0  0  0  0  0
   -1.6610   22.1160   10.8450 H   0  0  0  0  0  0  0  0  0  0  0  0
   -2.8100   23.5140   10.9150 H   0  0  0  0  0  0  0  0  0  0  0  0
   -0.1070   23.2790   12.3940 H   0  0  0  0  0  0  0  0  0  0  0  0
   -1.7580   23.1650   13.1250 H   0  0  0  0  0  0  0  0  0  0  0  0
   -0.6850   25.4330   13.4410 H   0  0  0  0  0  0  0  0  0  0  0  0
   -2.2460   25.5120   12.5340 H   0  0  0  0  0  0  0  0  0  0  0  0
   -0.5660   26.9700   11.4430 H   0  0  0  0  0  0  0  0  0  0  0  0
    0.6260   25.6080   11.3890 H   0  0  0  0  0  0  0  0  0  0  0  0
    4.2900   24.0750    8.1580 O   0  0  0  0  0  0  0  0  0  0  0  0
    6.0310   23.9770    6.3260 H   0  0  0  0  0  0  0  0  0  0  0  0
    6.3760   25.6690    4.5430 H   0  0  0  0  0  0  0  0  0  0  0  0
    5.0040   27.7050    4.4650 H   0  0  0  0  0  0  0  0  0  0  0  0
   -0.0230   32.6190    6.6130 H   0  0  0  0  0  0  0  0  0  0  0  0
    3.6380   29.1700    5.5150 H   0  0  0  0  0  0  0  0  0  0  0  0
    2.9390   26.4880    8.0820 H   0  0  0  0  0  0  0  0  0  0  0  0
    3.2440   24.1740    9.1580 C   0  0  0  0  0  0  0  0  0  0  0  0
    2.2530   24.1540    8.6640 H   0  0  0  0  0  0  0  0  0  0  0  0
    3.4120   23.2630    9.7770 H   0  0  0  0  0  0  0  0  0  0  0  0
    3.3880   25.0810    9.7820 H   0  0  0  0  0  0  0  0  0  0  0  0
  1 14  1  0  0  0  0
  1 21  2  0  0  0  0
  1 22  1  0  0  0  0
  2 18  2  0  0  0  0
  2 19  1  0  0  0  0
  2 25  1  0  0  0  0
  3  4  1  0  0  0  0
  3 16  1  0  0  0  0
  3 26  1  0  0  0  0
  3 27  1  0  0  0  0
  4  5  1  0  0  0  0
  4  9  1  0  0  0  0
  4 28  1  0  0  0  0
  5  6  1  0  0  0  0
  5 29  1  0  0  0  0
  5 30  1  0  0  0  0
  6  7  1  0  0  0  0
  6 31  1  0  0  0  0
  6 32  1  0  0  0  0
  7  8  1  0  0  0  0
  7 33  1  0  0  0  0
  7 34  1  0  0  0  0
  8  9  1  0  0  0  0
  8 35  1  0  0  0  0
  8 36  1  0  0  0  0
  9 37  1  0  0  0  0
  9 38  1  0  0  0  0
 10 11  1  0  0  0  0
 10 24  2  0  0  0  0
 10 39  1  0  0  0  0
 11 12  2  0  0  0  0
 11 40  1  0  0  0  0
 12 13  1  0  0  0  0
 12 41  1  0  0  0  0
 13 23  2  0  0  0  0
 13 42  1  0  0  0  0
 14 15  2  0  0  0  0
 15 16  1  0  0  0  0
 15 17  1  0  0  0  0
 17 18  1  0  0  0  0
 17 20  2  0  0  0  0
 19 20  1  0  0  0  0
 19 43  1  0  0  0  0
 20 21  1  0  0  0  0
 22 23  1  0  0  0  0
 22 44  1  0  0  0  0
 23 24  1  0  0  0  0
 24 45  1  0  0  0  0
 39 46  1  0  0  0  0
 46 47  1  0  0  0  0
 46 48  1  0  0  0  0
 46 49  1  0  0  0  0
M  END
$$$$
