18652-1
 OpenBabel02232411163D
Structure written by MMmdl.
 55 56  0  0  0  0  0  0  0  0999 V2000
   23.2300   12.6310   29.6500 C   0  0  0  0  0  0  0  0  0  0  0  0
   23.2170   11.1800   30.1120 C   0  0  0  0  0  0  0  0  0  0  0  0
   24.5230   10.7150   30.7270 C   0  0  0  0  0  0  0  0  0  0  0  0
   22.1490   11.2260   31.1630 O   0  0  0  0  0  0  0  0  0  0  0  0
   21.5560   10.0870   31.5670 C   0  0  0  0  0  0  0  0  0  0  0  0
   22.0200    8.8900   31.1290 N   0  0  0  0  0  0  0  0  0  0  0  0
   21.3200    7.7580   31.5080 C   0  0  0  0  0  0  0  0  0  0  0  0
   20.1860    7.8050   32.3130 C   0  0  0  0  0  0  0  0  0  0  0  0
   19.7020    9.0620   32.7640 C   0  0  0  0  0  0  0  0  0  0  0  0
   18.5510    9.1120   33.5090 N   0  0  0  0  0  0  0  0  0  0  0  0
   20.4090   10.2520   32.4040 C   0  0  0  0  0  0  0  0  0  0  0  0
   20.0130   11.5540   32.7760 C   0  0  0  0  0  0  0  0  0  0  0  0
   19.7330   12.6470   33.0450 N   0  0  0  0  0  0  0  0  0  0  0  0
   21.8720    6.5710   30.9640 N   0  0  0  0  0  0  0  0  0  0  0  0
   21.1900    5.3410   30.8440 C   0  0  0  0  0  0  0  0  0  0  0  0
   20.1040    5.1430   31.3480 O   0  0  0  0  0  0  0  0  0  0  0  0
   21.8820    4.3250   29.9500 C   0  0  0  0  0  0  0  0  0  0  0  0
   23.2480    3.8880   30.3870 C   0  0  0  0  0  0  0  0  0  0  0  0
   24.4020    4.6090   29.9530 C   0  0  0  0  0  0  0  0  0  0  0  0
   24.0870    5.7530   29.2210 O   0  0  0  0  0  0  0  0  0  0  0  0
   25.1020    6.7920   29.1700 C   0  0  0  0  0  0  0  0  0  0  0  0
   25.6840    4.1410   30.2030 C   0  0  0  0  0  0  0  0  0  0  0  0
   25.8810    2.9480   30.9280 C   0  0  0  0  0  0  0  0  0  0  0  0
   27.5240    2.3640   31.0900 S   0  0  0  0  0  0  0  0  0  0  0  0
   28.0390    1.9900   29.7490 O   0  0  0  0  0  0  0  0  0  0  0  0
   27.5100    1.1890   31.9970 O   0  0  0  0  0  0  0  0  0  0  0  0
   28.4340    3.6640   31.7910 C   0  0  0  0  0  0  0  0  0  0  0  0
   24.7540    2.2790   31.4260 C   0  0  0  0  0  0  0  0  0  0  0  0
   23.4390    2.7430   31.1390 C   0  0  0  0  0  0  0  0  0  0  0  0
   25.0170    1.1710   32.1830 O   0  0  0  0  0  0  0  0  0  0  0  0
   23.8930    0.4810   32.8050 C   0  0  0  0  0  0  0  0  0  0  0  0
   22.2020   12.9670   29.3860 H   0  0  0  0  0  0  0  0  0  0  0  0
   23.6450   13.3070   30.4300 H   0  0  0  0  0  0  0  0  0  0  0  0
   23.8710   12.7080   28.7360 H   0  0  0  0  0  0  0  0  0  0  0  0
   22.8670   10.4910   29.3080 H   0  0  0  0  0  0  0  0  0  0  0  0
   24.4500    9.6550   31.0690 H   0  0  0  0  0  0  0  0  0  0  0  0
   25.3330   10.7620   29.9580 H   0  0  0  0  0  0  0  0  0  0  0  0
   24.8160   11.3500   31.5870 H   0  0  0  0  0  0  0  0  0  0  0  0
   19.6470    6.8950   32.5850 H   0  0  0  0  0  0  0  0  0  0  0  0
   18.0480    8.2420   33.7710 H   0  0  0  0  0  0  0  0  0  0  0  0
   18.1490   10.0000   33.8080 H   0  0  0  0  0  0  0  0  0  0  0  0
   22.7860    6.6790   30.4650 H   0  0  0  0  0  0  0  0  0  0  0  0
   21.2210    3.4220   29.8690 H   0  0  0  0  0  0  0  0  0  0  0  0
   21.9690    4.7980   28.9290 H   0  0  0  0  0  0  0  0  0  0  0  0
   25.8780    6.5060   28.4280 H   0  0  0  0  0  0  0  0  0  0  0  0
   24.5110    7.6730   28.8270 H   0  0  0  0  0  0  0  0  0  0  0  0
   25.5400    6.9680   30.1760 H   0  0  0  0  0  0  0  0  0  0  0  0
   26.5440    4.7080   29.8300 H   0  0  0  0  0  0  0  0  0  0  0  0
   28.0140    3.9920   32.7750 H   0  0  0  0  0  0  0  0  0  0  0  0
   29.5040    3.3800   31.9760 H   0  0  0  0  0  0  0  0  0  0  0  0
   28.4700    4.5770   31.1390 H   0  0  0  0  0  0  0  0  0  0  0  0
   22.5720    2.1880   31.5020 H   0  0  0  0  0  0  0  0  0  0  0  0
   23.3520    1.1670   33.4920 H   0  0  0  0  0  0  0  0  0  0  0  0
   23.2290    0.0490   32.0270 H   0  0  0  0  0  0  0  0  0  0  0  0
   24.4130   -0.3240   33.3780 H   0  0  0  0  0  0  0  0  0  0  0  0
  1  2  1  0  0  0  0
  1 32  1  0  0  0  0
  1 33  1  0  0  0  0
  1 34  1  0  0  0  0
  2  3  1  0  0  0  0
  2  4  1  0  0  0  0
  2 35  1  0  0  0  0
  3 36  1  0  0  0  0
  3 37  1  0  0  0  0
  3 38  1  0  0  0  0
  4  5  1  0  0  0  0
  5 11  2  0  0  0  0
  5  6  1  0  0  0  0
  6  7  2  0  0  0  0
  7  8  1  0  0  0  0
  7 14  1  0  0  0  0
  8  9  2  0  0  0  0
  8 39  1  0  0  0  0
  9 10  1  0  0  0  0
  9 11  1  0  0  0  0
 10 40  1  0  0  0  0
 10 41  1  0  0  0  0
 11 12  1  0  0  0  0
 12 13  3  0  0  0  0
 14 15  1  0  0  0  0
 14 42  1  0  0  0  0
 15 16  2  0  0  0  0
 15 17  1  0  0  0  0
 17 18  1  0  0  0  0
 17 43  1  0  0  0  0
 17 44  1  0  0  0  0
 18 29  2  0  0  0  0
 18 19  1  0  0  0  0
 19 20  1  0  0  0  0
 19 22  2  0  0  0  0
 20 21  1  0  0  0  0
 21 45  1  0  0  0  0
 21 46  1  0  0  0  0
 21 47  1  0  0  0  0
 22 23  1  0  0  0  0
 22 48  1  0  0  0  0
 23 24  1  0  0  0  0
 23 28  2  0  0  0  0
 24 25  2  0  0  0  0
 24 26  2  0  0  0  0
 24 27  1  0  0  0  0
 27 49  1  0  0  0  0
 27 50  1  0  0  0  0
 27 51  1  0  0  0  0
 28 29  1  0  0  0  0
 28 30  1  0  0  0  0
 29 52  1  0  0  0  0
 30 31  1  0  0  0  0
 31 53  1  0  0  0  0
 31 54  1  0  0  0  0
 31 55  1  0  0  0  0
M  END
$$$$
