17
                    3D
 Schrodinger Suite 2022-3.
 45 48  0  0  1  0  0  0  0  0999 V2000
    1.7910   28.9400    6.8250 C   0  0  0  0  0  0  0  0  0  0  0  0
   -1.7090   31.5360    7.9250 C   0  0  0  0  0  0  0  0  0  0  0  0
   -0.3260   26.0270    8.8000 C   0  0  0  0  0  0  0  0  0  0  0  0
   -1.0800   25.3770    9.9670 C   0  0  0  0  0  0  0  0  0  0  0  0
   -0.9050   23.8470    9.8360 C   0  0  0  0  0  0  0  0  0  0  0  0
   -1.5430   23.1120   11.0230 C   0  0  0  0  0  0  0  0  0  0  0  0
   -1.0000   23.6210   12.3670 C   0  0  0  0  0  0  0  0  0  0  0  0
   -1.1880   25.1410   12.5020 C   0  0  0  0  0  0  0  0  0  0  0  0
   -0.5520   25.8910   11.3210 C   0  0  0  0  0  0  0  0  0  0  0  0
    5.2230   25.6560    5.7000 C   0  0  0  0  0  0  0  0  0  0  0  0
    5.1220   24.9080    6.8710 C   0  0  0  0  0  0  0  0  0  0  0  0
    4.3000   25.3850    7.8990 C   0  0  0  0  0  0  0  0  0  0  0  0
    3.5930   26.5800    7.7590 C   0  0  0  0  0  0  0  0  0  0  0  0
    1.0500   27.9740    7.5020 N   0  0  0  0  0  0  0  0  0  0  0  0
   -0.1520   28.3070    8.0380 C   0  0  0  0  0  0  0  0  0  0  0  0
   -0.8770   27.4030    8.7110 O   0  0  0  0  0  0  0  0  0  0  0  0
   -0.6530   29.6280    7.8940 C   0  0  0  0  0  0  0  0  0  0  0  0
   -1.8140   30.2710    8.3400 N   0  0  0  0  0  0  0  0  0  0  0  0
   -0.4750   31.7780    7.2230 N   0  0  0  0  0  0  0  0  0  0  0  0
    0.1930   30.5590    7.1670 C   0  0  0  0  0  0  0  0  0  0  0  0
    1.3990   30.2470    6.5910 N   0  0  0  0  0  0  0  0  0  0  0  0
    3.0430   28.5660    6.3460 N   0  0  0  0  0  0  0  0  0  0  0  0
    3.6940   27.3110    6.5620 C   0  0  0  0  0  0  0  0  0  0  0  0
    4.5340   26.8510    5.5220 C   0  0  0  0  0  0  0  0  0  0  0  0
   -2.4250   32.3360    8.0870 H   0  0  0  0  0  0  0  0  0  0  0  0
   -0.5640   25.5560    7.8240 H   0  0  0  0  0  0  0  0  0  0  0  0
    0.7690   26.0720    8.9920 H   0  0  0  0  0  0  0  0  0  0  0  0
   -2.1680   25.6260    9.8910 H   0  0  0  0  0  0  0  0  0  0  0  0
    0.1830   23.5970    9.7980 H   0  0  0  0  0  0  0  0  0  0  0  0
   -1.3850   23.4990    8.8940 H   0  0  0  0  0  0  0  0  0  0  0  0
   -1.3390   22.0190   10.9360 H   0  0  0  0  0  0  0  0  0  0  0  0
   -2.6440   23.2720   10.9990 H   0  0  0  0  0  0  0  0  0  0  0  0
    0.0850   23.3780   12.4460 H   0  0  0  0  0  0  0  0  0  0  0  0
   -1.5380   23.1090   13.1980 H   0  0  0  0  0  0  0  0  0  0  0  0
   -0.7040   25.4810   13.4480 H   0  0  0  0  0  0  0  0  0  0  0  0
   -2.2760   25.3760   12.5620 H   0  0  0  0  0  0  0  0  0  0  0  0
   -0.7750   26.9780   11.4160 H   0  0  0  0  0  0  0  0  0  0  0  0
    0.5550   25.7500   11.3720 H   0  0  0  0  0  0  0  0  0  0  0  0
    6.3280   25.0130    4.2720 Br  0  0  0  0  0  0  0  0  0  0  0  0
    5.6620   23.9660    6.9910 H   0  0  0  0  0  0  0  0  0  0  0  0
    4.2050   24.8090    8.8260 H   0  0  0  0  0  0  0  0  0  0  0  0
    2.9630   26.9240    8.5830 H   0  0  0  0  0  0  0  0  0  0  0  0
   -0.2310   32.6450    6.7220 H   0  0  0  0  0  0  0  0  0  0  0  0
    3.5240   29.1970    5.6610 H   0  0  0  0  0  0  0  0  0  0  0  0
    4.6370   27.4290    4.5980 H   0  0  0  0  0  0  0  0  0  0  0  0
  1 14  1  0  0  0  0
  1 21  2  0  0  0  0
  1 22  1  0  0  0  0
  2 18  2  0  0  0  0
  2 19  1  0  0  0  0
  2 25  1  0  0  0  0
  3  4  1  0  0  0  0
  3 16  1  0  0  0  0
  3 26  1  0  0  0  0
  3 27  1  0  0  0  0
  4  5  1  0  0  0  0
  4  9  1  0  0  0  0
  4 28  1  0  0  0  0
  5  6  1  0  0  0  0
  5 29  1  0  0  0  0
  5 30  1  0  0  0  0
  6  7  1  0  0  0  0
  6 31  1  0  0  0  0
  6 32  1  0  0  0  0
  7  8  1  0  0  0  0
  7 33  1  0  0  0  0
  7 34  1  0  0  0  0
  8  9  1  0  0  0  0
  8 35  1  0  0  0  0
  8 36  1  0  0  0  0
  9 37  1  0  0  0  0
  9 38  1  0  0  0  0
 10 11  1  0  0  0  0
 10 24  2  0  0  0  0
 10 39  1  0  0  0  0
 11 12  2  0  0  0  0
 11 40  1  0  0  0  0
 12 13  1  0  0  0  0
 12 41  1  0  0  0  0
 13 23  2  0  0  0  0
 13 42  1  0  0  0  0
 14 15  2  0  0  0  0
 15 16  1  0  0  0  0
 15 17  1  0  0  0  0
 17 18  1  0  0  0  0
 17 20  2  0  0  0  0
 19 20  1  0  0  0  0
 19 43  1  0  0  0  0
 20 21  1  0  0  0  0
 22 23  1  0  0  0  0
 22 44  1  0  0  0  0
 23 24  1  0  0  0  0
 24 45  1  0  0  0  0
M  END
$$$$
