5
 OpenBabel02232411173D

 52 54  0  0  1  0  0  0  0  0999 V2000
   18.1180  -13.0750   21.5070 N   0  0  0  0  0  0  0  0  0  0  0  0
   17.8790  -11.7250   20.9110 C   0  0  2  0  0  0  0  0  0  0  0  0
   17.2290  -13.6310   22.3880 C   0  0  0  0  0  0  0  0  0  0  0  0
   16.2110  -13.0320   22.7270 O   0  0  0  0  0  0  0  0  0  0  0  0
   16.4510  -11.6150   20.3070 C   0  0  0  0  0  0  0  0  0  0  0  0
   15.9330  -12.4950   19.6350 O   0  0  0  0  0  0  0  0  0  0  0  0
   18.9590  -11.5630   19.8240 C   0  0  0  0  0  0  0  0  0  0  0  0
   17.5460  -15.0430   22.9580 C   0  0  2  0  0  0  0  0  0  0  0  0
   15.8520  -10.3870   20.5220 N   0  0  0  0  0  0  0  0  0  0  0  0
   20.0230  -12.6460   20.0790 C   0  0  0  0  0  0  0  0  0  0  0  0
   16.2480  -15.8720   22.9190 N   0  3  0  0  0  0  0  0  0  0  0  0
   18.0390  -14.9700   24.4160 C   0  0  0  0  0  0  0  0  0  0  0  0
   14.4570  -10.0690   20.1310 C   0  0  0  0  0  0  0  0  0  0  0  0
   19.3680  -13.7080   20.9830 C   0  0  0  0  0  0  0  0  0  0  0  0
   19.4900  -14.5670   24.5240 C   0  0  0  0  0  0  0  0  0  0  0  0
   13.4330  -10.5290   21.1400 C   0  0  0  0  0  0  0  0  0  0  0  0
   19.8490  -13.3920   25.1940 C   0  0  0  0  0  0  0  0  0  0  0  0
   13.0850   -9.6940   22.2130 C   0  0  0  0  0  0  0  0  0  0  0  0
   21.1950  -13.0320   25.3220 C   0  0  0  0  0  0  0  0  0  0  0  0
   12.0820  -10.0830   23.1040 C   0  0  0  0  0  0  0  0  0  0  0  0
   22.1940  -13.8620   24.8080 C   0  0  0  0  0  0  0  0  0  0  0  0
   11.4350  -11.3110   22.9370 C   0  0  0  0  0  0  0  0  0  0  0  0
   21.8400  -15.0490   24.1560 C   0  0  0  0  0  0  0  0  0  0  0  0
   11.8110  -12.1630   21.8950 C   0  0  0  0  0  0  0  0  0  0  0  0
   20.4960  -15.3990   24.0090 C   0  0  0  0  0  0  0  0  0  0  0  0
   12.7990  -11.7690   20.9870 C   0  0  0  0  0  0  0  0  0  0  0  0
   18.0330  -10.9550   21.7180 H   0  0  0  0  0  0  0  0  0  0  0  0
   18.5280  -11.6900   18.8040 H   0  0  0  0  0  0  0  0  0  0  0  0
   19.4090  -10.5530   19.9130 H   0  0  0  0  0  0  0  0  0  0  0  0
   18.2940  -15.6120   22.3330 H   0  0  0  0  0  0  0  0  0  0  0  0
   16.3160   -9.6970   21.1420 H   0  0  0  0  0  0  0  0  0  0  0  0
   20.3550  -13.1140   19.1210 H   0  0  0  0  0  0  0  0  0  0  0  0
   20.9130  -12.2090   20.5870 H   0  0  0  0  0  0  0  0  0  0  0  0
   16.4370  -16.8360   23.3230 H   0  0  0  0  0  0  0  0  0  0  0  0
   15.4870  -15.3850   23.4940 H   0  0  0  0  0  0  0  0  0  0  0  0
   15.9200  -16.0010   21.9210 H   0  0  0  0  0  0  0  0  0  0  0  0
   17.3890  -14.2690   25.0000 H   0  0  0  0  0  0  0  0  0  0  0  0
   17.9470  -15.9920   24.8840 H   0  0  0  0  0  0  0  0  0  0  0  0
   14.4130   -8.9490   20.0210 H   0  0  0  0  0  0  0  0  0  0  0  0
   14.2510  -10.5310   19.1240 H   0  0  0  0  0  0  0  0  0  0  0  0
   20.0430  -13.9790   21.8340 H   0  0  0  0  0  0  0  0  0  0  0  0
   19.1130  -14.6250   20.3920 H   0  0  0  0  0  0  0  0  0  0  0  0
   19.0810  -12.7640   25.6390 H   0  0  0  0  0  0  0  0  0  0  0  0
   13.5940   -8.7400   22.3530 H   0  0  0  0  0  0  0  0  0  0  0  0
   21.4410  -12.0970   25.8300 H   0  0  0  0  0  0  0  0  0  0  0  0
   11.8050   -9.4310   23.9360 H   0  0  0  0  0  0  0  0  0  0  0  0
   23.2490  -13.5980   24.9200 H   0  0  0  0  0  0  0  0  0  0  0  0
   22.6090  -15.7190   23.7580 H   0  0  0  0  0  0  0  0  0  0  0  0
   11.3320  -13.1390   21.7910 H   0  0  0  0  0  0  0  0  0  0  0  0
   20.2280  -16.3290   23.5010 H   0  0  0  0  0  0  0  0  0  0  0  0
   13.0650  -12.4340   20.1620 H   0  0  0  0  0  0  0  0  0  0  0  0
   10.6350  -11.6140   23.6180 H   0  0  0  0  0  0  0  0  0  0  0  0
  1  2  1  0  0  0  0
  1 14  1  0  0  0  0
  1  3  1  0  0  0  0
  2  5  1  0  0  0  0
  2  7  1  0  0  0  0
  2 27  1  1  0  0  0
  3  8  1  0  0  0  0
  3  4  2  0  0  0  0
  5  6  2  0  0  0  0
  5  9  1  0  0  0  0
  7 10  1  0  0  0  0
  7 28  1  0  0  0  0
  7 29  1  0  0  0  0
  8 11  1  0  0  0  0
  8 12  1  0  0  0  0
  8 30  1  6  0  0  0
  9 13  1  0  0  0  0
  9 31  1  0  0  0  0
 10 14  1  0  0  0  0
 10 32  1  0  0  0  0
 10 33  1  0  0  0  0
 11 34  1  0  0  0  0
 11 35  1  0  0  0  0
 11 36  1  0  0  0  0
 12 15  1  0  0  0  0
 12 37  1  0  0  0  0
 12 38  1  0  0  0  0
 13 16  1  0  0  0  0
 13 39  1  0  0  0  0
 13 40  1  0  0  0  0
 14 41  1  0  0  0  0
 14 42  1  0  0  0  0
 15 17  2  0  0  0  0
 15 25  1  0  0  0  0
 16 18  2  0  0  0  0
 16 26  1  0  0  0  0
 17 19  1  0  0  0  0
 17 43  1  0  0  0  0
 18 20  1  0  0  0  0
 18 44  1  0  0  0  0
 19 21  2  0  0  0  0
 19 45  1  0  0  0  0
 20 22  2  0  0  0  0
 20 46  1  0  0  0  0
 21 23  1  0  0  0  0
 21 47  1  0  0  0  0
 22 24  1  0  0  0  0
 22 52  1  0  0  0  0
 23 25  2  0  0  0  0
 23 48  1  0  0  0  0
 24 26  2  0  0  0  0
 24 49  1  0  0  0  0
 25 50  1  0  0  0  0
 26 51  1  0  0  0  0
M  CHG  1  11   1
M  END
$$$$
