1oi9
 OpenBabel02232411153D
Structure written by MMmdl.
 46 49  0  0  0  0  0  0  0  0999 V2000
    1.5820   28.8450    6.8320 C   0  0  0  0  0  0  0  0  0  0  0  0
   -1.7590   31.5820    8.0790 C   0  0  0  0  0  0  0  0  0  0  0  0
   -0.4880   26.0090    8.8630 C   0  0  0  0  0  0  0  0  0  0  0  0
   -1.1240   25.3110   10.0720 C   0  0  0  0  0  0  0  0  0  0  0  0
   -0.8810   23.7940    9.8830 C   0  0  0  0  0  0  0  0  0  0  0  0
   -1.3390   22.9860   11.1050 C   0  0  0  0  0  0  0  0  0  0  0  0
   -0.6980   23.5100   12.3990 C   0  0  0  0  0  0  0  0  0  0  0  0
   -0.9960   25.0050   12.5940 C   0  0  0  0  0  0  0  0  0  0  0  0
   -0.5110   25.8250   11.3890 C   0  0  0  0  0  0  0  0  0  0  0  0
    5.3030   25.6450    6.5060 C   0  0  0  0  0  0  0  0  0  0  0  0
    5.0770   25.1710    7.8110 C   0  0  0  0  0  0  0  0  0  0  0  0
    4.0320   25.6670    8.5970 C   0  0  0  0  0  0  0  0  0  0  0  0
    3.2700   26.7310    8.1260 C   0  0  0  0  0  0  0  0  0  0  0  0
    0.8050   27.9120    7.5180 N   0  0  0  0  0  0  0  0  0  0  0  0
   -0.3490   28.2860    8.1160 C   0  0  0  0  0  0  0  0  0  0  0  0
   -1.0410   27.3910    8.8430 O   0  0  0  0  0  0  0  0  0  0  0  0
   -0.8050   29.6240    7.9880 C   0  0  0  0  0  0  0  0  0  0  0  0
   -1.9100   30.3200    8.4880 N   0  0  0  0  0  0  0  0  0  0  0  0
   -0.5550   31.7660    7.3110 N   0  0  0  0  0  0  0  0  0  0  0  0
    0.0560   30.5190    7.2290 C   0  0  0  0  0  0  0  0  0  0  0  0
    1.2370   30.1690    6.6220 N   0  0  0  0  0  0  0  0  0  0  0  0
    2.7860   28.3800    6.3100 N   0  0  0  0  0  0  0  0  0  0  0  0
    3.5070   27.2530    6.8440 C   0  0  0  0  0  0  0  0  0  0  0  0
    4.5130   26.6860    6.0280 C   0  0  0  0  0  0  0  0  0  0  0  0
   -2.4210   32.4150    8.2960 H   0  0  0  0  0  0  0  0  0  0  0  0
    0.6190   26.0510    8.9730 H   0  0  0  0  0  0  0  0  0  0  0  0
   -0.7930   25.5580    7.8980 H   0  0  0  0  0  0  0  0  0  0  0  0
   -2.2230   25.5010   10.1000 H   0  0  0  0  0  0  0  0  0  0  0  0
   -1.4380   23.4420    8.9870 H   0  0  0  0  0  0  0  0  0  0  0  0
    0.2110   23.6100    9.7270 H   0  0  0  0  0  0  0  0  0  0  0  0
   -2.4430   23.0550   11.2010 H   0  0  0  0  0  0  0  0  0  0  0  0
   -1.0590   21.9150   10.9660 H   0  0  0  0  0  0  0  0  0  0  0  0
   -1.0950   22.9360   13.2670 H   0  0  0  0  0  0  0  0  0  0  0  0
    0.4060   23.3620   12.3430 H   0  0  0  0  0  0  0  0  0  0  0  0
   -2.0900   25.1500   12.7410 H   0  0  0  0  0  0  0  0  0  0  0  0
   -0.4720   25.3640   13.5100 H   0  0  0  0  0  0  0  0  0  0  0  0
    0.6030   25.7530   11.3440 H   0  0  0  0  0  0  0  0  0  0  0  0
   -0.7910   26.8930   11.5350 H   0  0  0  0  0  0  0  0  0  0  0  0
    6.0910   25.2200    5.8810 H   0  0  0  0  0  0  0  0  0  0  0  0
    3.8090   25.2320    9.5680 H   0  0  0  0  0  0  0  0  0  0  0  0
    2.5040   27.1440    8.7850 H   0  0  0  0  0  0  0  0  0  0  0  0
   -0.2570   32.6340    6.8410 H   0  0  0  0  0  0  0  0  0  0  0  0
    3.3920   29.0430    5.7760 H   0  0  0  0  0  0  0  0  0  0  0  0
    4.6880   27.0810    5.0230 H   0  0  0  0  0  0  0  0  0  0  0  0
    5.9730   24.2480    8.3010 O   0  0  0  0  0  0  0  0  0  0  0  0
    5.7370   24.0410    9.3140 H   0  0  0  0  0  0  0  0  0  0  0  0
  1 14  2  0  0  0  0
  1 21  1  0  0  0  0
  1 22  1  0  0  0  0
  2 18  2  0  0  0  0
  2 19  1  0  0  0  0
  2 25  1  0  0  0  0
  3  4  1  0  0  0  0
  3 16  1  0  0  0  0
  3 26  1  0  0  0  0
  3 27  1  0  0  0  0
  4  5  1  0  0  0  0
  4  9  1  0  0  0  0
  4 28  1  0  0  0  0
  5  6  1  0  0  0  0
  5 29  1  0  0  0  0
  5 30  1  0  0  0  0
  6  7  1  0  0  0  0
  6 31  1  0  0  0  0
  6 32  1  0  0  0  0
  7  8  1  0  0  0  0
  7 33  1  0  0  0  0
  7 34  1  0  0  0  0
  8  9  1  0  0  0  0
  8 35  1  0  0  0  0
  8 36  1  0  0  0  0
  9 37  1  0  0  0  0
  9 38  1  0  0  0  0
 10 11  2  0  0  0  0
 10 24  1  0  0  0  0
 10 39  1  0  0  0  0
 11 12  1  0  0  0  0
 11 45  1  0  0  0  0
 12 13  2  0  0  0  0
 12 40  1  0  0  0  0
 13 23  1  0  0  0  0
 13 41  1  0  0  0  0
 14 15  1  0  0  0  0
 15 16  1  0  0  0  0
 15 17  2  0  0  0  0
 17 18  1  0  0  0  0
 17 20  1  0  0  0  0
 19 20  1  0  0  0  0
 19 42  1  0  0  0  0
 20 21  2  0  0  0  0
 22 23  1  0  0  0  0
 22 43  1  0  0  0  0
 23 24  2  0  0  0  0
 24 44  1  0  0  0  0
 45 46  1  0  0  0  0
M  END
$$$$
