p38a_2r
 OpenBabel02232411163D
Structure written by MMmdl.
 56 59  0  0  0  0  0  0  0  0999 V2000
   38.2890   36.5280   17.2310 C   0  0  0  0  0  0  0  0  0  0  0  0
   34.4750   35.0680   21.3370 C   0  0  0  0  0  0  0  0  0  0  0  0
   37.5410   36.0930   18.3210 C   0  0  0  0  0  0  0  0  0  0  0  0
   33.8270   39.1110   23.9160 C   0  0  0  0  0  0  0  0  0  0  0  0
   34.6630   37.9320   21.5670 C   0  0  0  0  0  0  0  0  0  0  0  0
   35.1460   37.2900   20.3750 C   0  0  0  0  0  0  0  0  0  0  0  0
   37.6070   36.6480   16.0130 C   0  0  0  0  0  0  0  0  0  0  0  0
   36.2550   36.3320   15.8540 C   0  0  0  0  0  0  0  0  0  0  0  0
   35.5280   35.8870   16.9630 C   0  0  0  0  0  0  0  0  0  0  0  0
   34.1010   37.1570   22.6280 C   0  0  0  0  0  0  0  0  0  0  0  0
   34.7190   39.3390   21.7600 C   0  0  0  0  0  0  0  0  0  0  0  0
   35.0710   35.9430   20.2910 C   0  0  0  0  0  0  0  0  0  0  0  0
   36.1770   35.7540   18.1940 C   0  0  0  0  0  0  0  0  0  0  0  0
   38.1120   35.9880   19.5140 F   0  0  0  0  0  0  0  0  0  0  0  0
   35.5030   35.1250   19.2480 O   0  0  0  0  0  0  0  0  0  0  0  0
   34.3380   39.9420   22.8950 N   0  0  0  0  0  0  0  0  0  0  0  0
   34.3730   33.8620   21.2560 O   0  0  0  0  0  0  0  0  0  0  0  0
   33.9720   35.7600   22.4910 N   0  0  0  0  0  0  0  0  0  0  0  0
   33.6460   37.7490   23.7750 N   0  0  0  0  0  0  0  0  0  0  0  0
   33.4750   39.6970   25.1070 N   0  0  0  0  0  0  0  0  0  0  0  0
   39.3450   36.7970   17.3270 H   0  0  0  0  0  0  0  0  0  0  0  0
   35.5570   37.9150   19.5790 H   0  0  0  0  0  0  0  0  0  0  0  0
   35.7570   36.4410   14.8870 H   0  0  0  0  0  0  0  0  0  0  0  0
   34.4620   35.6590   16.8590 H   0  0  0  0  0  0  0  0  0  0  0  0
   35.0910   39.9860   20.9480 H   0  0  0  0  0  0  0  0  0  0  0  0
   33.6130   40.7160   25.2430 H   0  0  0  0  0  0  0  0  0  0  0  0
   38.2740   37.1220   14.9630 F   0  0  0  0  0  0  0  0  0  0  0  0
   33.2960   40.6040   28.1630 C   0  0  0  0  0  0  0  0  0  0  0  0
   32.2820   39.8820   27.2660 C   0  0  0  0  0  0  0  0  0  0  0  0
   32.9390   38.9090   26.2650 C   0  0  0  0  0  0  0  0  0  0  0  0
   34.0230   38.0620   26.9610 C   0  0  0  0  0  0  0  0  0  0  0  0
   34.9750   38.9160   27.7980 C   0  0  0  0  0  0  0  0  0  0  0  0
   34.2450   39.7030   28.7700 O   0  0  0  0  0  0  0  0  0  0  0  0
   32.7920   41.0560   29.0490 H   0  0  0  0  0  0  0  0  0  0  0  0
   33.8590   41.3710   27.5860 H   0  0  0  0  0  0  0  0  0  0  0  0
   31.6910   40.6460   26.7070 H   0  0  0  0  0  0  0  0  0  0  0  0
   31.5740   39.2910   27.8990 H   0  0  0  0  0  0  0  0  0  0  0  0
   32.1430   38.2150   25.8650 H   0  0  0  0  0  0  0  0  0  0  0  0
   33.4990   37.3270   27.6230 H   0  0  0  0  0  0  0  0  0  0  0  0
   34.6020   37.4690   26.2080 H   0  0  0  0  0  0  0  0  0  0  0  0
   35.6190   38.2850   28.4510 H   0  0  0  0  0  0  0  0  0  0  0  0
   35.5730   39.6020   27.1570 H   0  0  0  0  0  0  0  0  0  0  0  0
   33.3560   34.9690   23.5950 C   0  0  0  0  0  0  0  0  0  0  0  0
   32.5770   35.6100   24.1020 H   0  0  0  0  0  0  0  0  0  0  0  0
   32.8290   34.0790   23.1480 H   0  0  0  0  0  0  0  0  0  0  0  0
   34.3560   34.4490   24.6760 C   0  0  0  0  0  0  0  0  0  0  0  0
   35.3450   35.4880   24.8570 O   0  0  0  0  0  0  0  0  0  0  0  0
   35.8470   35.3000   25.6990 H   0  0  0  0  0  0  0  0  0  0  0  0
   35.0970   33.1740   24.2500 C   0  0  0  0  0  0  0  0  0  0  0  0
   35.3240   33.1990   23.1640 H   0  0  0  0  0  0  0  0  0  0  0  0
   36.0580   33.1170   24.8070 H   0  0  0  0  0  0  0  0  0  0  0  0
   34.4890   32.2730   24.4770 H   0  0  0  0  0  0  0  0  0  0  0  0
   33.5860   34.2290   25.9900 C   0  0  0  0  0  0  0  0  0  0  0  0
   34.2680   33.8640   26.7900 H   0  0  0  0  0  0  0  0  0  0  0  0
   33.1220   35.1790   26.3440 H   0  0  0  0  0  0  0  0  0  0  0  0
   32.7750   33.4770   25.8570 H   0  0  0  0  0  0  0  0  0  0  0  0
  1  3  2  0  0  0  0
  1  7  1  0  0  0  0
  1 21  1  0  0  0  0
  2 12  1  0  0  0  0
  2 17  2  0  0  0  0
  2 18  1  0  0  0  0
  3 13  1  0  0  0  0
  3 14  1  0  0  0  0
  4 16  2  0  0  0  0
  4 19  1  0  0  0  0
  4 20  1  0  0  0  0
  5  6  1  0  0  0  0
  5 10  1  0  0  0  0
  5 11  2  0  0  0  0
  6 12  2  0  0  0  0
  6 22  1  0  0  0  0
  7  8  2  0  0  0  0
  7 27  1  0  0  0  0
  8  9  1  0  0  0  0
  8 23  1  0  0  0  0
  9 13  2  0  0  0  0
  9 24  1  0  0  0  0
 10 18  1  0  0  0  0
 10 19  2  0  0  0  0
 11 16  1  0  0  0  0
 11 25  1  0  0  0  0
 12 15  1  0  0  0  0
 13 15  1  0  0  0  0
 18 43  1  0  0  0  0
 20 26  1  0  0  0  0
 20 30  1  0  0  0  0
 28 29  1  0  0  0  0
 28 33  1  0  0  0  0
 28 34  1  0  0  0  0
 28 35  1  0  0  0  0
 29 30  1  0  0  0  0
 29 36  1  0  0  0  0
 29 37  1  0  0  0  0
 30 31  1  0  0  0  0
 30 38  1  0  0  0  0
 31 32  1  0  0  0  0
 31 39  1  0  0  0  0
 31 40  1  0  0  0  0
 32 33  1  0  0  0  0
 32 41  1  0  0  0  0
 32 42  1  0  0  0  0
 43 44  1  0  0  0  0
 43 45  1  0  0  0  0
 43 46  1  0  0  0  0
 46 47  1  0  0  0  0
 46 49  1  0  0  0  0
 46 53  1  0  0  0  0
 47 48  1  0  0  0  0
 49 50  1  0  0  0  0
 49 51  1  0  0  0  0
 49 52  1  0  0  0  0
 53 54  1  0  0  0  0
 53 55  1  0  0  0  0
 53 56  1  0  0  0  0
M  END
$$$$
