58
 OpenBabel02232411163D
Structure written by MMmdl.
 47 49  0  0  0  0  0  0  0  0999 V2000
    3.9730  -49.8420    5.9680 O   0  0  0  0  0  0  0  0  0  0  0  0
    3.2000  -49.0590    6.5510 C   0  0  0  0  0  0  0  0  0  0  0  0
    3.5060  -48.0740    7.2360 O   0  5  0  0  0  0  0  0  0  0  0  0
    1.7010  -49.3750    6.3940 C   0  0  0  0  0  0  0  0  0  0  0  0
   -0.1970  -50.6480    6.4530 C   0  0  0  0  0  0  0  0  0  0  0  0
   -1.1650  -51.6580    6.6200 C   0  0  0  0  0  0  0  0  0  0  0  0
   -2.4480  -51.3220    6.2390 C   0  0  0  0  0  0  0  0  0  0  0  0
   -2.8270  -50.0690    5.7150 C   0  0  0  0  0  0  0  0  0  0  0  0
   -1.8680  -49.0780    5.5560 C   0  0  0  0  0  0  0  0  0  0  0  0
   -0.5400  -49.3460    5.9250 C   0  0  0  0  0  0  0  0  0  0  0  0
    0.6750  -48.5670    5.9130 C   0  0  0  0  0  0  0  0  0  0  0  0
    0.7270  -47.1450    5.4840 C   0  0  0  0  0  0  0  0  0  0  0  0
    0.6090  -46.1730    6.6710 C   0  0  0  0  0  0  0  0  0  0  0  0
   -0.7260  -46.2520    7.4060 C   0  0  0  0  0  0  0  0  0  0  0  0
   -1.6970  -45.7150    6.4330 O   0  0  0  0  0  0  0  0  0  0  0  0
   -2.9690  -45.4780    6.8470 C   0  0  0  0  0  0  0  0  0  0  0  0
   -3.5010  -45.8580    8.0900 C   0  0  0  0  0  0  0  0  0  0  0  0
   -4.8320  -45.5370    8.3890 C   0  0  0  0  0  0  0  0  0  0  0  0
   -5.4300  -45.9070    9.7050 C   0  0  0  0  0  0  0  0  0  0  0  0
   -5.5970  -44.8620    7.4250 C   0  0  0  0  0  0  0  0  0  0  0  0
   -7.2530  -44.5230    7.7740 Cl  0  0  0  0  0  0  0  0  0  0  0  0
   -5.0770  -44.4830    6.1720 C   0  0  0  0  0  0  0  0  0  0  0  0
   -5.9390  -43.8160    5.1520 C   0  0  0  0  0  0  0  0  0  0  0  0
   -3.7490  -44.7950    5.8890 C   0  0  0  0  0  0  0  0  0  0  0  0
   -0.9190  -52.6400    7.0240 H   0  0  0  0  0  0  0  0  0  0  0  0
   -3.6920  -52.5350    6.3770 Cl  0  0  0  0  0  0  0  0  0  0  0  0
   -3.8660  -49.8910    5.4370 H   0  0  0  0  0  0  0  0  0  0  0  0
   -2.1550  -48.1040    5.1520 H   0  0  0  0  0  0  0  0  0  0  0  0
   -0.1300  -46.9470    4.7920 H   0  0  0  0  0  0  0  0  0  0  0  0
    1.6800  -46.9270    4.9440 H   0  0  0  0  0  0  0  0  0  0  0  0
    0.7280  -45.1300    6.2940 H   0  0  0  0  0  0  0  0  0  0  0  0
    1.4150  -46.4030    7.4100 H   0  0  0  0  0  0  0  0  0  0  0  0
   -0.7470  -45.5840    8.2940 H   0  0  0  0  0  0  0  0  0  0  0  0
   -1.0430  -47.2920    7.6300 H   0  0  0  0  0  0  0  0  0  0  0  0
   -2.9150  -46.4120    8.8180 H   0  0  0  0  0  0  0  0  0  0  0  0
   -5.8730  -45.0100   10.2020 H   0  0  0  0  0  0  0  0  0  0  0  0
   -6.2510  -46.6510    9.5560 H   0  0  0  0  0  0  0  0  0  0  0  0
   -4.6730  -46.3600   10.3850 H   0  0  0  0  0  0  0  0  0  0  0  0
   -5.3340  -43.4800    4.2770 H   0  0  0  0  0  0  0  0  0  0  0  0
   -6.7160  -44.5380    4.7970 H   0  0  0  0  0  0  0  0  0  0  0  0
   -6.4610  -42.9300    5.5820 H   0  0  0  0  0  0  0  0  0  0  0  0
   -3.3140  -44.5270    4.9320 H   0  0  0  0  0  0  0  0  0  0  0  0
    1.8690  -51.7780    7.3390 C   0  0  0  0  0  0  0  0  0  0  0  0
    1.6360  -52.7300    6.7830 H   0  0  0  0  0  0  0  0  0  0  0  0
    2.9810  -51.6370    7.3350 H   0  0  0  0  0  0  0  0  0  0  0  0
    1.5210  -51.9120    8.4020 H   0  0  0  0  0  0  0  0  0  0  0  0
    1.1780  -50.6430    6.7150 N   0  0  0  0  0  0  0  0  0  0  0  0
  1  2  2  0  0  0  0
  2  3  1  0  0  0  0
  2  4  1  0  0  0  0
  4 11  2  0  0  0  0
  4 47  1  0  0  0  0
  5  6  2  0  0  0  0
  5 10  1  0  0  0  0
  5 47  1  0  0  0  0
  6  7  1  0  0  0  0
  6 25  1  0  0  0  0
  7  8  2  0  0  0  0
  7 26  1  0  0  0  0
  8  9  1  0  0  0  0
  8 27  1  0  0  0  0
  9 10  2  0  0  0  0
  9 28  1  0  0  0  0
 10 11  1  0  0  0  0
 11 12  1  0  0  0  0
 12 29  1  0  0  0  0
 12 30  1  0  0  0  0
 12 13  1  0  0  0  0
 13 14  1  0  0  0  0
 13 31  1  0  0  0  0
 13 32  1  0  0  0  0
 14 15  1  0  0  0  0
 14 33  1  0  0  0  0
 14 34  1  0  0  0  0
 15 16  1  0  0  0  0
 16 17  2  0  0  0  0
 16 24  1  0  0  0  0
 17 18  1  0  0  0  0
 17 35  1  0  0  0  0
 18 19  1  0  0  0  0
 18 20  2  0  0  0  0
 19 36  1  0  0  0  0
 19 37  1  0  0  0  0
 19 38  1  0  0  0  0
 20 21  1  0  0  0  0
 20 22  1  0  0  0  0
 22 23  1  0  0  0  0
 22 24  2  0  0  0  0
 23 39  1  0  0  0  0
 23 40  1  0  0  0  0
 23 41  1  0  0  0  0
 24 42  1  0  0  0  0
 43 44  1  0  0  0  0
 43 45  1  0  0  0  0
 43 46  1  0  0  0  0
 43 47  1  0  0  0  0
M  CHG  1   3  -1
M  END
$$$$
