p38a_2o
 OpenBabel02232411163D
Structure written by MMmdl.
 55 58  0  0  0  0  0  0  0  0999 V2000
   38.1900   36.4790   17.2760 C   0  0  0  0  0  0  0  0  0  0  0  0
   34.5500   35.1760   21.4280 C   0  0  0  0  0  0  0  0  0  0  0  0
   37.3900   36.0710   18.3410 C   0  0  0  0  0  0  0  0  0  0  0  0
   34.1770   39.2490   24.0210 C   0  0  0  0  0  0  0  0  0  0  0  0
   34.6800   38.0510   21.5840 C   0  0  0  0  0  0  0  0  0  0  0  0
   34.9950   37.3980   20.3420 C   0  0  0  0  0  0  0  0  0  0  0  0
   37.5470   36.6460   16.0420 C   0  0  0  0  0  0  0  0  0  0  0  0
   36.1860   36.4030   15.8440 C   0  0  0  0  0  0  0  0  0  0  0  0
   35.4050   35.9910   16.9290 C   0  0  0  0  0  0  0  0  0  0  0  0
   34.3710   37.2780   22.7420 C   0  0  0  0  0  0  0  0  0  0  0  0
   34.6670   39.4630   21.7370 C   0  0  0  0  0  0  0  0  0  0  0  0
   34.9660   36.0470   20.2960 C   0  0  0  0  0  0  0  0  0  0  0  0
   36.0120   35.8150   18.1760 C   0  0  0  0  0  0  0  0  0  0  0  0
   37.9260   35.9110   19.5430 F   0  0  0  0  0  0  0  0  0  0  0  0
   35.2630   35.2290   19.2060 O   0  0  0  0  0  0  0  0  0  0  0  0
   34.4300   40.0750   22.9080 N   0  0  0  0  0  0  0  0  0  0  0  0
   34.4270   33.9730   21.3810 O   0  0  0  0  0  0  0  0  0  0  0  0
   34.3030   35.8740   22.6680 N   0  0  0  0  0  0  0  0  0  0  0  0
   34.1400   37.8680   23.9560 N   0  0  0  0  0  0  0  0  0  0  0  0
   33.9520   39.8490   25.2360 N   0  0  0  0  0  0  0  0  0  0  0  0
   39.2550   36.6950   17.4030 H   0  0  0  0  0  0  0  0  0  0  0  0
   35.2570   38.0200   19.4830 H   0  0  0  0  0  0  0  0  0  0  0  0
   35.7210   36.5450   14.8650 H   0  0  0  0  0  0  0  0  0  0  0  0
   34.3310   35.8230   16.7960 H   0  0  0  0  0  0  0  0  0  0  0  0
   34.8480   40.1070   20.8610 H   0  0  0  0  0  0  0  0  0  0  0  0
   33.9430   40.8820   25.3120 H   0  0  0  0  0  0  0  0  0  0  0  0
   38.2680   37.0930   15.0160 F   0  0  0  0  0  0  0  0  0  0  0  0
   33.5840   40.8510   28.3060 C   0  0  0  0  0  0  0  0  0  0  0  0
   32.7440   39.9300   27.4110 C   0  0  0  0  0  0  0  0  0  0  0  0
   33.5820   39.0560   26.4540 C   0  0  0  0  0  0  0  0  0  0  0  0
   34.8380   38.4910   27.1500 C   0  0  0  0  0  0  0  0  0  0  0  0
   35.5720   39.5480   27.9740 C   0  0  0  0  0  0  0  0  0  0  0  0
   34.6830   40.1630   28.9370 O   0  0  0  0  0  0  0  0  0  0  0  0
   32.9860   41.2070   29.1760 H   0  0  0  0  0  0  0  0  0  0  0  0
   33.9920   41.7030   27.7180 H   0  0  0  0  0  0  0  0  0  0  0  0
   32.0300   40.5560   26.8210 H   0  0  0  0  0  0  0  0  0  0  0  0
   32.1390   39.2370   28.0490 H   0  0  0  0  0  0  0  0  0  0  0  0
   32.9350   38.1930   26.1190 H   0  0  0  0  0  0  0  0  0  0  0  0
   34.5030   37.6540   27.8140 H   0  0  0  0  0  0  0  0  0  0  0  0
   35.5290   38.0600   26.3850 H   0  0  0  0  0  0  0  0  0  0  0  0
   36.3460   39.0910   28.6310 H   0  0  0  0  0  0  0  0  0  0  0  0
   35.9930   40.3440   27.3190 H   0  0  0  0  0  0  0  0  0  0  0  0
   33.9020   35.0890   23.8920 C   0  0  0  0  0  0  0  0  0  0  0  0
   34.2010   34.0200   23.7110 H   0  0  0  0  0  0  0  0  0  0  0  0
   34.4780   35.5060   24.7700 H   0  0  0  0  0  0  0  0  0  0  0  0
   32.4000   35.2120   24.1630 C   0  0  0  0  0  0  0  0  0  0  0  0
   32.1990   36.2310   24.6130 H   0  0  0  0  0  0  0  0  0  0  0  0
   31.8230   35.2070   23.1990 H   0  0  0  0  0  0  0  0  0  0  0  0
   31.7320   33.9800   25.2400 S   0  0  0  0  0  0  0  0  0  0  0  0
   32.6150   33.7020   26.3920 O   0  0  0  0  0  0  0  0  0  0  0  0
   31.4990   32.7370   24.4640 O   0  0  0  0  0  0  0  0  0  0  0  0
   30.2260   34.6630   25.7620 C   0  0  0  0  0  0  0  0  0  0  0  0
   29.5980   35.0270   24.9090 H   0  0  0  0  0  0  0  0  0  0  0  0
   29.6000   33.9450   26.3500 H   0  0  0  0  0  0  0  0  0  0  0  0
   30.3670   35.5530   26.4380 H   0  0  0  0  0  0  0  0  0  0  0  0
  1  3  2  0  0  0  0
  1  7  1  0  0  0  0
  1 21  1  0  0  0  0
  2 12  1  0  0  0  0
  2 17  2  0  0  0  0
  2 18  1  0  0  0  0
  3 13  1  0  0  0  0
  3 14  1  0  0  0  0
  4 16  2  0  0  0  0
  4 19  1  0  0  0  0
  4 20  1  0  0  0  0
  5  6  1  0  0  0  0
  5 10  1  0  0  0  0
  5 11  2  0  0  0  0
  6 12  2  0  0  0  0
  6 22  1  0  0  0  0
  7  8  2  0  0  0  0
  7 27  1  0  0  0  0
  8  9  1  0  0  0  0
  8 23  1  0  0  0  0
  9 13  2  0  0  0  0
  9 24  1  0  0  0  0
 10 18  1  0  0  0  0
 10 19  2  0  0  0  0
 11 16  1  0  0  0  0
 11 25  1  0  0  0  0
 12 15  1  0  0  0  0
 13 15  1  0  0  0  0
 18 43  1  0  0  0  0
 20 26  1  0  0  0  0
 20 30  1  0  0  0  0
 28 29  1  0  0  0  0
 28 33  1  0  0  0  0
 28 34  1  0  0  0  0
 28 35  1  0  0  0  0
 29 30  1  0  0  0  0
 29 36  1  0  0  0  0
 29 37  1  0  0  0  0
 30 31  1  0  0  0  0
 30 38  1  0  0  0  0
 31 32  1  0  0  0  0
 31 39  1  0  0  0  0
 31 40  1  0  0  0  0
 32 33  1  0  0  0  0
 32 41  1  0  0  0  0
 32 42  1  0  0  0  0
 43 44  1  0  0  0  0
 43 45  1  0  0  0  0
 43 46  1  0  0  0  0
 46 47  1  0  0  0  0
 46 48  1  0  0  0  0
 46 49  1  0  0  0  0
 49 50  2  0  0  0  0
 49 51  2  0  0  0  0
 49 52  1  0  0  0  0
 52 53  1  0  0  0  0
 52 54  1  0  0  0  0
 52 55  1  0  0  0  0
M  END
$$$$
