18659-1
 OpenBabel02232411163D
Structure written by MMmdl.
 50 51  0  0  0  0  0  0  0  0999 V2000
   25.6900   10.4240   28.3160 C   0  0  0  0  0  0  0  0  0  0  0  0
   24.4320    9.7120   28.2540 O   0  0  0  0  0  0  0  0  0  0  0  0
   23.3350   10.4310   28.8630 C   0  0  0  0  0  0  0  0  0  0  0  0
   23.6080   10.7310   30.3450 C   0  0  0  0  0  0  0  0  0  0  0  0
   22.3540   10.9440   31.0820 O   0  0  0  0  0  0  0  0  0  0  0  0
   21.6430    9.8540   31.4780 C   0  0  0  0  0  0  0  0  0  0  0  0
   22.0650    8.6410   31.0690 N   0  0  0  0  0  0  0  0  0  0  0  0
   21.3120    7.5330   31.4350 C   0  0  0  0  0  0  0  0  0  0  0  0
   20.1630    7.6350   32.2130 C   0  0  0  0  0  0  0  0  0  0  0  0
   19.7320    8.9170   32.6490 C   0  0  0  0  0  0  0  0  0  0  0  0
   18.5940    9.0220   33.4100 N   0  0  0  0  0  0  0  0  0  0  0  0
   20.4840   10.0820   32.2750 C   0  0  0  0  0  0  0  0  0  0  0  0
   20.1190   11.3960   32.6360 C   0  0  0  0  0  0  0  0  0  0  0  0
   19.8540   12.4930   32.9010 N   0  0  0  0  0  0  0  0  0  0  0  0
   21.8780    6.3600   30.9070 N   0  0  0  0  0  0  0  0  0  0  0  0
   21.3380    5.0540   30.9310 C   0  0  0  0  0  0  0  0  0  0  0  0
   20.2610    4.8070   31.4260 O   0  0  0  0  0  0  0  0  0  0  0  0
   22.2100    4.0420   30.2020 C   0  0  0  0  0  0  0  0  0  0  0  0
   23.5690    3.8640   30.8170 C   0  0  0  0  0  0  0  0  0  0  0  0
   24.6400    4.7610   30.5320 C   0  0  0  0  0  0  0  0  0  0  0  0
   24.2960    5.7950   29.6640 O   0  0  0  0  0  0  0  0  0  0  0  0
   25.1810    6.9500   29.6260 C   0  0  0  0  0  0  0  0  0  0  0  0
   25.9110    4.5720   31.0660 C   0  0  0  0  0  0  0  0  0  0  0  0
   26.1540    3.4910   31.9240 C   0  0  0  0  0  0  0  0  0  0  0  0
   25.1080    2.6170   32.2200 C   0  0  0  0  0  0  0  0  0  0  0  0
   23.8200    2.7870   31.6580 C   0  0  0  0  0  0  0  0  0  0  0  0
   25.1750    1.5180   33.0510 O   0  0  0  0  0  0  0  0  0  0  0  0
   26.4500    1.2300   33.6810 C   0  0  0  0  0  0  0  0  0  0  0  0
   26.3530    9.8650   27.6240 H   0  0  0  0  0  0  0  0  0  0  0  0
   26.0860   10.3690   29.3550 H   0  0  0  0  0  0  0  0  0  0  0  0
   25.5620   11.4750   27.9800 H   0  0  0  0  0  0  0  0  0  0  0  0
   22.5050    9.6980   28.7350 H   0  0  0  0  0  0  0  0  0  0  0  0
   23.1580   11.3670   28.2880 H   0  0  0  0  0  0  0  0  0  0  0  0
   24.0780   11.7320   30.4920 H   0  0  0  0  0  0  0  0  0  0  0  0
   24.2030    9.9160   30.8200 H   0  0  0  0  0  0  0  0  0  0  0  0
   19.5820    6.7520   32.4840 H   0  0  0  0  0  0  0  0  0  0  0  0
   18.0720    8.1770   33.7100 H   0  0  0  0  0  0  0  0  0  0  0  0
   18.2360    9.9290   33.7100 H   0  0  0  0  0  0  0  0  0  0  0  0
   22.8030    6.5020   30.4160 H   0  0  0  0  0  0  0  0  0  0  0  0
   21.6740    3.0570   30.1920 H   0  0  0  0  0  0  0  0  0  0  0  0
   22.3330    4.3910   29.1410 H   0  0  0  0  0  0  0  0  0  0  0  0
   26.1030    6.6810   29.0720 H   0  0  0  0  0  0  0  0  0  0  0  0
   25.3960    7.3150   30.6510 H   0  0  0  0  0  0  0  0  0  0  0  0
   24.5580    7.6930   29.0660 H   0  0  0  0  0  0  0  0  0  0  0  0
   26.7410    5.2420   30.8280 H   0  0  0  0  0  0  0  0  0  0  0  0
   27.1580    3.3620   32.3340 H   0  0  0  0  0  0  0  0  0  0  0  0
   23.0440    2.0540   31.8940 H   0  0  0  0  0  0  0  0  0  0  0  0
   26.2110    0.3150   34.2720 H   0  0  0  0  0  0  0  0  0  0  0  0
   26.7500    2.0700   34.3450 H   0  0  0  0  0  0  0  0  0  0  0  0
   27.2220    1.0180   32.9090 H   0  0  0  0  0  0  0  0  0  0  0  0
  1  2  1  0  0  0  0
  1 29  1  0  0  0  0
  1 30  1  0  0  0  0
  1 31  1  0  0  0  0
  2  3  1  0  0  0  0
  3  4  1  0  0  0  0
  3 32  1  0  0  0  0
  3 33  1  0  0  0  0
  4  5  1  0  0  0  0
  4 34  1  0  0  0  0
  4 35  1  0  0  0  0
  5  6  1  0  0  0  0
  6 12  2  0  0  0  0
  6  7  1  0  0  0  0
  7  8  2  0  0  0  0
  8  9  1  0  0  0  0
  8 15  1  0  0  0  0
  9 10  2  0  0  0  0
  9 36  1  0  0  0  0
 10 11  1  0  0  0  0
 10 12  1  0  0  0  0
 11 37  1  0  0  0  0
 11 38  1  0  0  0  0
 12 13  1  0  0  0  0
 13 14  3  0  0  0  0
 15 16  1  0  0  0  0
 15 39  1  0  0  0  0
 16 17  2  0  0  0  0
 16 18  1  0  0  0  0
 18 19  1  0  0  0  0
 18 40  1  0  0  0  0
 18 41  1  0  0  0  0
 19 26  2  0  0  0  0
 19 20  1  0  0  0  0
 20 21  1  0  0  0  0
 20 23  2  0  0  0  0
 21 22  1  0  0  0  0
 22 42  1  0  0  0  0
 22 43  1  0  0  0  0
 22 44  1  0  0  0  0
 23 24  1  0  0  0  0
 23 45  1  0  0  0  0
 24 25  2  0  0  0  0
 24 46  1  0  0  0  0
 25 26  1  0  0  0  0
 25 27  1  0  0  0  0
 26 47  1  0  0  0  0
 27 28  1  0  0  0  0
 28 48  1  0  0  0  0
 28 49  1  0  0  0  0
 28 50  1  0  0  0  0
M  END
$$$$
