p38a_3flw
 OpenBabel02232411163D
Structure written by MMmdl.
 49 51  0  0  0  0  0  0  0  0999 V2000
   36.3660   36.0610   15.7840 C   0  0  0  0  0  0  0  0  0  0  0  0
   37.6580   36.5660   15.9790 C   0  0  0  0  0  0  0  0  0  0  0  0
   32.9070   39.9040   27.4220 C   0  0  0  0  0  0  0  0  0  0  0  0
   34.2710   40.4520   27.8650 C   0  0  0  0  0  0  0  0  0  0  0  0
   31.6090   38.2710   25.9720 C   0  0  0  0  0  0  0  0  0  0  0  0
   33.9740   34.8840   23.7750 C   0  0  0  0  0  0  0  0  0  0  0  0
   34.4940   35.0640   16.8210 F   0  0  0  0  0  0  0  0  0  0  0  0
   35.7070   35.5920   16.9160 C   0  0  0  0  0  0  0  0  0  0  0  0
   38.2870   37.0900   14.9290 F   0  0  0  0  0  0  0  0  0  0  0  0
   38.3010   36.5810   17.2200 C   0  0  0  0  0  0  0  0  0  0  0  0
   37.6030   36.1390   18.3500 C   0  0  0  0  0  0  0  0  0  0  0  0
   36.3050   35.6450   18.1920 C   0  0  0  0  0  0  0  0  0  0  0  0
   35.5740   35.0390   19.2200 O   0  0  0  0  0  0  0  0  0  0  0  0
   35.1680   35.8680   20.2640 C   0  0  0  0  0  0  0  0  0  0  0  0
   35.2100   37.2180   20.3300 C   0  0  0  0  0  0  0  0  0  0  0  0
   34.7420   37.8650   21.5270 C   0  0  0  0  0  0  0  0  0  0  0  0
   34.6620   39.2760   21.6700 C   0  0  0  0  0  0  0  0  0  0  0  0
   34.2430   39.8770   22.7950 N   0  0  0  0  0  0  0  0  0  0  0  0
   34.6100   34.9970   21.3350 C   0  0  0  0  0  0  0  0  0  0  0  0
   34.3960   33.8090   21.2340 O   0  0  0  0  0  0  0  0  0  0  0  0
   34.3210   35.6820   22.5660 N   0  0  0  0  0  0  0  0  0  0  0  0
   34.3370   37.0830   22.6510 C   0  0  0  0  0  0  0  0  0  0  0  0
   33.9280   37.6630   23.8260 N   0  0  0  0  0  0  0  0  0  0  0  0
   33.8850   39.0430   23.8750 C   0  0  0  0  0  0  0  0  0  0  0  0
   33.4760   39.6580   25.0340 N   0  0  0  0  0  0  0  0  0  0  0  0
   32.9900   38.9150   26.2410 C   0  0  0  0  0  0  0  0  0  0  0  0
   31.2060   37.3050   27.0960 C   0  0  0  0  0  0  0  0  0  0  0  0
   30.4370   36.2280   26.5150 O   0  0  0  0  0  0  0  0  0  0  0  0
   34.1360   41.2240   29.0750 O   0  0  0  0  0  0  0  0  0  0  0  0
   35.8930   36.0600   14.8000 H   0  0  0  0  0  0  0  0  0  0  0  0
   32.4370   39.3780   28.2890 H   0  0  0  0  0  0  0  0  0  0  0  0
   32.2520   40.7620   27.1420 H   0  0  0  0  0  0  0  0  0  0  0  0
   34.9700   39.6360   28.1560 H   0  0  0  0  0  0  0  0  0  0  0  0
   34.7080   41.1150   27.0840 H   0  0  0  0  0  0  0  0  0  0  0  0
   30.8370   39.0640   25.8520 H   0  0  0  0  0  0  0  0  0  0  0  0
   31.6530   37.6790   25.0240 H   0  0  0  0  0  0  0  0  0  0  0  0
   32.9300   35.1250   24.1130 H   0  0  0  0  0  0  0  0  0  0  0  0
   34.0480   33.7880   23.5520 H   0  0  0  0  0  0  0  0  0  0  0  0
   34.6820   35.1380   24.6100 H   0  0  0  0  0  0  0  0  0  0  0  0
   39.3210   36.9600   17.3180 H   0  0  0  0  0  0  0  0  0  0  0  0
   38.0700   36.2060   19.3350 H   0  0  0  0  0  0  0  0  0  0  0  0
   35.5910   37.8460   19.5210 H   0  0  0  0  0  0  0  0  0  0  0  0
   34.9410   39.9310   20.8270 H   0  0  0  0  0  0  0  0  0  0  0  0
   33.3940   40.6920   25.0650 H   0  0  0  0  0  0  0  0  0  0  0  0
   33.7430   38.1110   26.4780 H   0  0  0  0  0  0  0  0  0  0  0  0
   32.0970   36.8000   27.5390 H   0  0  0  0  0  0  0  0  0  0  0  0
   30.6010   37.8160   27.8760 H   0  0  0  0  0  0  0  0  0  0  0  0
   29.4900   36.2820   26.8990 H   0  0  0  0  0  0  0  0  0  0  0  0
   33.4000   41.9020   28.9320 H   0  0  0  0  0  0  0  0  0  0  0  0
  1  2  2  0  0  0  0
  1  8  1  0  0  0  0
  1 30  1  0  0  0  0
  2  9  1  0  0  0  0
  2 10  1  0  0  0  0
  3  4  1  0  0  0  0
  3 26  1  0  0  0  0
  3 31  1  0  0  0  0
  3 32  1  0  0  0  0
  4 29  1  0  0  0  0
  4 33  1  0  0  0  0
  4 34  1  0  0  0  0
  5 26  1  0  0  0  0
  5 27  1  0  0  0  0
  5 35  1  0  0  0  0
  5 36  1  0  0  0  0
  6 21  1  0  0  0  0
  6 37  1  0  0  0  0
  6 38  1  0  0  0  0
  6 39  1  0  0  0  0
  7  8  1  0  0  0  0
  8 12  2  0  0  0  0
 10 11  2  0  0  0  0
 10 40  1  0  0  0  0
 11 12  1  0  0  0  0
 11 41  1  0  0  0  0
 12 13  1  0  0  0  0
 13 14  1  0  0  0  0
 14 15  2  0  0  0  0
 14 19  1  0  0  0  0
 15 16  1  0  0  0  0
 15 42  1  0  0  0  0
 16 17  2  0  0  0  0
 16 22  1  0  0  0  0
 17 18  1  0  0  0  0
 17 43  1  0  0  0  0
 18 24  2  0  0  0  0
 19 20  2  0  0  0  0
 19 21  1  0  0  0  0
 21 22  1  0  0  0  0
 22 23  2  0  0  0  0
 23 24  1  0  0  0  0
 24 25  1  0  0  0  0
 25 26  1  0  0  0  0
 25 44  1  0  0  0  0
 26 45  1  0  0  0  0
 27 28  1  0  0  0  0
 27 46  1  0  0  0  0
 27 47  1  0  0  0  0
 28 48  1  0  0  0  0
 29 49  1  0  0  0  0
M  END
$$$$
