57
 OpenBabel02232411163D
Structure written by MMmdl.
 47 50  0  0  0  0  0  0  0  0999 V2000
    3.3390  -48.1220    7.1010 O   0  0  0  0  0  0  0  0  0  0  0  0
    2.9630  -49.0880    6.4220 C   0  0  0  0  0  0  0  0  0  0  0  0
    3.6790  -49.8470    5.7400 O   0  5  0  0  0  0  0  0  0  0  0  0
    1.4590  -49.4290    6.3940 C   0  0  0  0  0  0  0  0  0  0  0  0
   -0.3990  -50.7600    6.5860 C   0  0  0  0  0  0  0  0  0  0  0  0
   -1.3290  -51.7870    6.8330 C   0  0  0  0  0  0  0  0  0  0  0  0
   -2.6540  -51.5480    6.5030 C   0  0  0  0  0  0  0  0  0  0  0  0
   -3.0620  -50.3150    5.9380 C   0  0  0  0  0  0  0  0  0  0  0  0
   -2.1540  -49.2950    5.6990 C   0  0  0  0  0  0  0  0  0  0  0  0
   -0.8010  -49.4930    6.0250 C   0  0  0  0  0  0  0  0  0  0  0  0
    0.3840  -48.6730    5.9340 C   0  0  0  0  0  0  0  0  0  0  0  0
    0.3680  -47.2660    5.4510 C   0  0  0  0  0  0  0  0  0  0  0  0
    0.3250  -46.2360    6.5950 C   0  0  0  0  0  0  0  0  0  0  0  0
   -0.8360  -46.4060    7.5680 C   0  0  0  0  0  0  0  0  0  0  0  0
   -2.0270  -45.8650    6.8770 O   0  0  0  0  0  0  0  0  0  0  0  0
   -3.2030  -45.8690    7.5650 C   0  0  0  0  0  0  0  0  0  0  0  0
   -5.7190  -45.6420    8.8080 C   0  0  0  0  0  0  0  0  0  0  0  0
   -4.7240  -46.4050    9.3680 C   0  0  0  0  0  0  0  0  0  0  0  0
   -3.4480  -46.5220    8.7600 C   0  0  0  0  0  0  0  0  0  0  0  0
   -1.0310  -52.7390    7.2730 H   0  0  0  0  0  0  0  0  0  0  0  0
   -3.4060  -52.3180    6.6830 H   0  0  0  0  0  0  0  0  0  0  0  0
   -4.1160  -50.1780    5.6920 H   0  0  0  0  0  0  0  0  0  0  0  0
   -2.4920  -48.3510    5.2680 H   0  0  0  0  0  0  0  0  0  0  0  0
   -0.5400  -47.1150    4.8120 H   0  0  0  0  0  0  0  0  0  0  0  0
    1.2750  -47.0530    4.8340 H   0  0  0  0  0  0  0  0  0  0  0  0
    1.2640  -46.3280    7.1970 H   0  0  0  0  0  0  0  0  0  0  0  0
    0.2680  -45.2130    6.1580 H   0  0  0  0  0  0  0  0  0  0  0  0
   -0.7020  -45.7710    8.4710 H   0  0  0  0  0  0  0  0  0  0  0  0
   -1.0500  -47.4700    7.7990 H   0  0  0  0  0  0  0  0  0  0  0  0
   -2.7110  -47.1410    9.2570 H   0  0  0  0  0  0  0  0  0  0  0  0
   -5.5020  -44.9860    7.5560 C   0  0  0  0  0  0  0  0  0  0  0  0
   -4.2400  -45.0990    6.9120 C   0  0  0  0  0  0  0  0  0  0  0  0
   -4.0440  -44.4880    5.6410 C   0  0  0  0  0  0  0  0  0  0  0  0
   -5.0560  -43.7760    5.0420 C   0  0  0  0  0  0  0  0  0  0  0  0
   -6.3190  -43.6620    5.6830 C   0  0  0  0  0  0  0  0  0  0  0  0
   -6.5400  -44.2480    6.9060 C   0  0  0  0  0  0  0  0  0  0  0  0
   -3.0850  -44.6170    5.1380 H   0  0  0  0  0  0  0  0  0  0  0  0
   -4.9080  -43.3000    4.0760 H   0  0  0  0  0  0  0  0  0  0  0  0
   -7.1100  -43.1050    5.1860 H   0  0  0  0  0  0  0  0  0  0  0  0
   -7.5120  -44.1700    7.3920 H   0  0  0  0  0  0  0  0  0  0  0  0
   -4.9070  -46.9430   10.3010 H   0  0  0  0  0  0  0  0  0  0  0  0
   -6.6890  -45.5440    9.2920 H   0  0  0  0  0  0  0  0  0  0  0  0
    1.7370  -51.7700    7.4590 C   0  0  0  0  0  0  0  0  0  0  0  0
    1.4700  -52.7710    7.0140 H   0  0  0  0  0  0  0  0  0  0  0  0
    2.8450  -51.6330    7.3630 H   0  0  0  0  0  0  0  0  0  0  0  0
    1.4690  -51.8060    8.5520 H   0  0  0  0  0  0  0  0  0  0  0  0
    0.9920  -50.7000    6.7830 N   0  0  0  0  0  0  0  0  0  0  0  0
  1  2  2  0  0  0  0
  2  3  1  0  0  0  0
  2  4  1  0  0  0  0
  4 11  2  0  0  0  0
  4 47  1  0  0  0  0
  5  6  2  0  0  0  0
  5 10  1  0  0  0  0
  5 47  1  0  0  0  0
  6  7  1  0  0  0  0
  6 20  1  0  0  0  0
  7  8  2  0  0  0  0
  7 21  1  0  0  0  0
  8  9  1  0  0  0  0
  8 22  1  0  0  0  0
  9 10  2  0  0  0  0
  9 23  1  0  0  0  0
 10 11  1  0  0  0  0
 11 12  1  0  0  0  0
 12 24  1  0  0  0  0
 12 25  1  0  0  0  0
 12 13  1  0  0  0  0
 13 14  1  0  0  0  0
 13 26  1  0  0  0  0
 13 27  1  0  0  0  0
 14 15  1  0  0  0  0
 14 28  1  0  0  0  0
 14 29  1  0  0  0  0
 15 16  1  0  0  0  0
 16 19  2  0  0  0  0
 16 32  1  0  0  0  0
 17 18  2  0  0  0  0
 17 31  1  0  0  0  0
 17 42  1  0  0  0  0
 18 19  1  0  0  0  0
 18 41  1  0  0  0  0
 19 30  1  0  0  0  0
 31 32  2  0  0  0  0
 31 36  1  0  0  0  0
 32 33  1  0  0  0  0
 33 34  2  0  0  0  0
 33 37  1  0  0  0  0
 34 35  1  0  0  0  0
 34 38  1  0  0  0  0
 35 36  2  0  0  0  0
 35 39  1  0  0  0  0
 36 40  1  0  0  0  0
 43 44  1  0  0  0  0
 43 45  1  0  0  0  0
 43 46  1  0  0  0  0
 43 47  1  0  0  0  0
M  CHG  1   3  -1
M  END
$$$$
