p38a_2p
 OpenBabel02232411163D
Structure written by MMmdl.
 58 61  0  0  0  0  0  0  0  0999 V2000
   38.2960   36.5390   17.1610 C   0  0  0  0  0  0  0  0  0  0  0  0
   34.4910   35.0240   21.2040 C   0  0  0  0  0  0  0  0  0  0  0  0
   37.5260   36.0720   18.2220 C   0  0  0  0  0  0  0  0  0  0  0  0
   33.6850   39.1130   23.6750 C   0  0  0  0  0  0  0  0  0  0  0  0
   34.5660   37.9000   21.3600 C   0  0  0  0  0  0  0  0  0  0  0  0
   35.0440   37.2460   20.1720 C   0  0  0  0  0  0  0  0  0  0  0  0
   37.6370   36.6920   15.9330 C   0  0  0  0  0  0  0  0  0  0  0  0
   36.2900   36.3800   15.7380 C   0  0  0  0  0  0  0  0  0  0  0  0
   35.5420   35.8960   16.8160 C   0  0  0  0  0  0  0  0  0  0  0  0
   34.0610   37.1350   22.4520 C   0  0  0  0  0  0  0  0  0  0  0  0
   34.5840   39.3120   21.5140 C   0  0  0  0  0  0  0  0  0  0  0  0
   35.0300   35.8960   20.1240 C   0  0  0  0  0  0  0  0  0  0  0  0
   36.1670   35.7280   18.0540 C   0  0  0  0  0  0  0  0  0  0  0  0
   38.0660   35.9440   19.4270 F   0  0  0  0  0  0  0  0  0  0  0  0
   35.4750   35.0790   19.0860 O   0  0  0  0  0  0  0  0  0  0  0  0
   34.1790   39.9280   22.6310 N   0  0  0  0  0  0  0  0  0  0  0  0
   34.4480   33.8150   21.1710 O   0  0  0  0  0  0  0  0  0  0  0  0
   34.0170   35.7320   22.3700 N   0  0  0  0  0  0  0  0  0  0  0  0
   33.6340   37.7380   23.6130 N   0  0  0  0  0  0  0  0  0  0  0  0
   33.1960   39.7960   24.7670 N   0  0  0  0  0  0  0  0  0  0  0  0
   39.3470   36.8130   17.2880 H   0  0  0  0  0  0  0  0  0  0  0  0
   35.4080   37.8700   19.3530 H   0  0  0  0  0  0  0  0  0  0  0  0
   35.8090   36.5240   14.7670 H   0  0  0  0  0  0  0  0  0  0  0  0
   34.4780   35.6720   16.6840 H   0  0  0  0  0  0  0  0  0  0  0  0
   34.9440   39.9510   20.6900 H   0  0  0  0  0  0  0  0  0  0  0  0
   33.4010   40.8160   24.8300 H   0  0  0  0  0  0  0  0  0  0  0  0
   38.3230   37.1990   14.9110 F   0  0  0  0  0  0  0  0  0  0  0  0
   33.3210   38.0490   28.1950 C   0  0  0  0  0  0  0  0  0  0  0  0
   33.8660   38.5280   26.8440 C   0  0  0  0  0  0  0  0  0  0  0  0
   32.7310   39.2240   26.0640 C   0  0  0  0  0  0  0  0  0  0  0  0
   31.5340   38.2700   25.9060 C   0  0  0  0  0  0  0  0  0  0  0  0
   31.0940   37.7620   27.2860 C   0  0  0  0  0  0  0  0  0  0  0  0
   32.1850   37.1720   28.0300 O   0  0  0  0  0  0  0  0  0  0  0  0
   33.0200   38.9130   28.8320 H   0  0  0  0  0  0  0  0  0  0  0  0
   34.0530   37.3910   28.7170 H   0  0  0  0  0  0  0  0  0  0  0  0
   34.2500   37.6570   26.2610 H   0  0  0  0  0  0  0  0  0  0  0  0
   34.7070   39.2420   27.0120 H   0  0  0  0  0  0  0  0  0  0  0  0
   32.3900   40.1320   26.6490 H   0  0  0  0  0  0  0  0  0  0  0  0
   30.6830   38.8010   25.4170 H   0  0  0  0  0  0  0  0  0  0  0  0
   31.8150   37.3970   25.2660 H   0  0  0  0  0  0  0  0  0  0  0  0
   30.6510   38.5820   27.8940 H   0  0  0  0  0  0  0  0  0  0  0  0
   30.3900   36.9030   27.1830 H   0  0  0  0  0  0  0  0  0  0  0  0
   33.3780   34.9410   23.4740 C   0  0  0  0  0  0  0  0  0  0  0  0
   33.8090   33.9030   23.4610 H   0  0  0  0  0  0  0  0  0  0  0  0
   33.6170   35.4340   24.4570 H   0  0  0  0  0  0  0  0  0  0  0  0
   31.8470   34.8870   23.2890 C   0  0  0  0  0  0  0  0  0  0  0  0
   31.4550   35.9410   23.2680 H   0  0  0  0  0  0  0  0  0  0  0  0
   31.5830   34.4110   22.3160 H   0  0  0  0  0  0  0  0  0  0  0  0
   31.1410   34.1720   24.4450 C   0  0  0  0  0  0  0  0  0  0  0  0
   30.1130   34.6320   24.5380 H   0  0  0  0  0  0  0  0  0  0  0  0
   31.6560   34.4350   25.4090 H   0  0  0  0  0  0  0  0  0  0  0  0
   30.9840   32.4300   24.2790 S   0  0  0  0  0  0  0  0  0  0  0  0
   30.8720   31.8130   25.6270 O   0  0  0  0  0  0  0  0  0  0  0  0
   32.1140   31.8480   23.5290 O   0  0  0  0  0  0  0  0  0  0  0  0
   29.5100   32.1700   23.4020 C   0  0  0  0  0  0  0  0  0  0  0  0
   29.5870   32.4540   22.3150 H   0  0  0  0  0  0  0  0  0  0  0  0
   29.1850   31.0980   23.4110 H   0  0  0  0  0  0  0  0  0  0  0  0
   28.6500   32.7650   23.7910 H   0  0  0  0  0  0  0  0  0  0  0  0
  1  3  2  0  0  0  0
  1  7  1  0  0  0  0
  1 21  1  0  0  0  0
  2 12  1  0  0  0  0
  2 17  2  0  0  0  0
  2 18  1  0  0  0  0
  3 13  1  0  0  0  0
  3 14  1  0  0  0  0
  4 16  2  0  0  0  0
  4 19  1  0  0  0  0
  4 20  1  0  0  0  0
  5  6  1  0  0  0  0
  5 10  1  0  0  0  0
  5 11  2  0  0  0  0
  6 12  2  0  0  0  0
  6 22  1  0  0  0  0
  7  8  2  0  0  0  0
  7 27  1  0  0  0  0
  8  9  1  0  0  0  0
  8 23  1  0  0  0  0
  9 13  2  0  0  0  0
  9 24  1  0  0  0  0
 10 18  1  0  0  0  0
 10 19  2  0  0  0  0
 11 16  1  0  0  0  0
 11 25  1  0  0  0  0
 12 15  1  0  0  0  0
 13 15  1  0  0  0  0
 18 43  1  0  0  0  0
 20 26  1  0  0  0  0
 20 30  1  0  0  0  0
 28 29  1  0  0  0  0
 28 33  1  0  0  0  0
 28 34  1  0  0  0  0
 28 35  1  0  0  0  0
 29 30  1  0  0  0  0
 29 36  1  0  0  0  0
 29 37  1  0  0  0  0
 30 31  1  0  0  0  0
 30 38  1  0  0  0  0
 31 32  1  0  0  0  0
 31 39  1  0  0  0  0
 31 40  1  0  0  0  0
 32 33  1  0  0  0  0
 32 41  1  0  0  0  0
 32 42  1  0  0  0  0
 43 44  1  0  0  0  0
 43 45  1  0  0  0  0
 43 46  1  0  0  0  0
 46 47  1  0  0  0  0
 46 48  1  0  0  0  0
 46 49  1  0  0  0  0
 49 50  1  0  0  0  0
 49 51  1  0  0  0  0
 49 52  1  0  0  0  0
 52 53  2  0  0  0  0
 52 54  2  0  0  0  0
 52 55  1  0  0  0  0
 55 56  1  0  0  0  0
 55 57  1  0  0  0  0
 55 58  1  0  0  0  0
M  END
$$$$
