p38a_2r
 OpenBabel02232411163D
Structure written by MMmdl.
 56 59  0  0  0  0  0  0  0  0999 V2000
   38.2250   36.5050   17.2290 C   0  0  0  0  0  0  0  0  0  0  0  0
   34.5650   35.1100   21.3370 C   0  0  0  0  0  0  0  0  0  0  0  0
   37.4240   36.0750   18.2840 C   0  0  0  0  0  0  0  0  0  0  0  0
   34.1810   39.1630   23.9560 C   0  0  0  0  0  0  0  0  0  0  0  0
   34.6770   37.9770   21.5180 C   0  0  0  0  0  0  0  0  0  0  0  0
   35.0040   37.3380   20.2740 C   0  0  0  0  0  0  0  0  0  0  0  0
   37.5910   36.6650   15.9890 C   0  0  0  0  0  0  0  0  0  0  0  0
   36.2380   36.3920   15.7760 C   0  0  0  0  0  0  0  0  0  0  0  0
   35.4560   35.9530   16.8500 C   0  0  0  0  0  0  0  0  0  0  0  0
   34.3860   37.1960   22.6790 C   0  0  0  0  0  0  0  0  0  0  0  0
   34.6510   39.3900   21.6680 C   0  0  0  0  0  0  0  0  0  0  0  0
   34.9950   35.9870   20.2170 C   0  0  0  0  0  0  0  0  0  0  0  0
   36.0540   35.7860   18.1030 C   0  0  0  0  0  0  0  0  0  0  0  0
   37.9500   35.9310   19.4930 F   0  0  0  0  0  0  0  0  0  0  0  0
   35.3040   35.1820   19.1190 O   0  0  0  0  0  0  0  0  0  0  0  0
   34.4010   39.9950   22.8370 N   0  0  0  0  0  0  0  0  0  0  0  0
   34.4180   33.9080   21.2640 O   0  0  0  0  0  0  0  0  0  0  0  0
   34.3290   35.7890   22.5820 N   0  0  0  0  0  0  0  0  0  0  0  0
   34.1990   37.7820   23.9030 N   0  0  0  0  0  0  0  0  0  0  0  0
   33.9000   39.7820   25.1500 N   0  0  0  0  0  0  0  0  0  0  0  0
   39.2850   36.7400   17.3660 H   0  0  0  0  0  0  0  0  0  0  0  0
   35.2640   37.9660   19.4170 H   0  0  0  0  0  0  0  0  0  0  0  0
   35.7790   36.5300   14.7940 H   0  0  0  0  0  0  0  0  0  0  0  0
   34.3900   35.7550   16.7030 H   0  0  0  0  0  0  0  0  0  0  0  0
   34.8330   40.0380   20.7930 H   0  0  0  0  0  0  0  0  0  0  0  0
   33.9530   40.8170   25.2230 H   0  0  0  0  0  0  0  0  0  0  0  0
   38.3090   37.1380   14.9730 F   0  0  0  0  0  0  0  0  0  0  0  0
   32.4410   39.1460   28.6240 C   0  0  0  0  0  0  0  0  0  0  0  0
   32.6230   39.8230   27.2590 C   0  0  0  0  0  0  0  0  0  0  0  0
   33.6620   39.0420   26.4230 C   0  0  0  0  0  0  0  0  0  0  0  0
   34.9790   38.8880   27.2160 C   0  0  0  0  0  0  0  0  0  0  0  0
   34.6840   38.2490   28.5790 C   0  0  0  0  0  0  0  0  0  0  0  0
   33.7000   39.0060   29.3210 O   0  0  0  0  0  0  0  0  0  0  0  0
   31.9730   38.1400   28.5130 H   0  0  0  0  0  0  0  0  0  0  0  0
   31.8570   39.7920   29.3190 H   0  0  0  0  0  0  0  0  0  0  0  0
   32.9650   40.8740   27.4110 H   0  0  0  0  0  0  0  0  0  0  0  0
   31.6450   39.8490   26.7220 H   0  0  0  0  0  0  0  0  0  0  0  0
   33.2500   38.0210   26.1860 H   0  0  0  0  0  0  0  0  0  0  0  0
   35.6860   38.2350   26.6510 H   0  0  0  0  0  0  0  0  0  0  0  0
   35.4580   39.8850   27.3590 H   0  0  0  0  0  0  0  0  0  0  0  0
   34.3190   37.2020   28.4610 H   0  0  0  0  0  0  0  0  0  0  0  0
   35.5720   38.2970   29.2500 H   0  0  0  0  0  0  0  0  0  0  0  0
   33.8130   34.9920   23.7320 C   0  0  0  0  0  0  0  0  0  0  0  0
   34.2260   33.9470   23.6670 H   0  0  0  0  0  0  0  0  0  0  0  0
   34.1810   35.4510   24.6930 H   0  0  0  0  0  0  0  0  0  0  0  0
   32.2480   34.9170   23.7570 C   0  0  0  0  0  0  0  0  0  0  0  0
   31.7880   36.2050   23.2860 O   0  0  0  0  0  0  0  0  0  0  0  0
   31.0860   36.1010   22.6080 H   0  0  0  0  0  0  0  0  0  0  0  0
   31.7530   34.7570   25.1980 C   0  0  0  0  0  0  0  0  0  0  0  0
   32.0170   35.6480   25.8140 H   0  0  0  0  0  0  0  0  0  0  0  0
   30.6440   34.6430   25.2230 H   0  0  0  0  0  0  0  0  0  0  0  0
   32.2030   33.8540   25.6740 H   0  0  0  0  0  0  0  0  0  0  0  0
   31.6980   33.8100   22.8520 C   0  0  0  0  0  0  0  0  0  0  0  0
   30.5860   33.8740   22.7900 H   0  0  0  0  0  0  0  0  0  0  0  0
   32.1170   33.8740   21.8240 H   0  0  0  0  0  0  0  0  0  0  0  0
   31.9530   32.8080   23.2690 H   0  0  0  0  0  0  0  0  0  0  0  0
  1  3  2  0  0  0  0
  1  7  1  0  0  0  0
  1 21  1  0  0  0  0
  2 12  1  0  0  0  0
  2 17  2  0  0  0  0
  2 18  1  0  0  0  0
  3 13  1  0  0  0  0
  3 14  1  0  0  0  0
  4 16  2  0  0  0  0
  4 19  1  0  0  0  0
  4 20  1  0  0  0  0
  5  6  1  0  0  0  0
  5 10  1  0  0  0  0
  5 11  2  0  0  0  0
  6 12  2  0  0  0  0
  6 22  1  0  0  0  0
  7  8  2  0  0  0  0
  7 27  1  0  0  0  0
  8  9  1  0  0  0  0
  8 23  1  0  0  0  0
  9 13  2  0  0  0  0
  9 24  1  0  0  0  0
 10 18  1  0  0  0  0
 10 19  2  0  0  0  0
 11 16  1  0  0  0  0
 11 25  1  0  0  0  0
 12 15  1  0  0  0  0
 13 15  1  0  0  0  0
 18 43  1  0  0  0  0
 20 26  1  0  0  0  0
 20 30  1  0  0  0  0
 28 29  1  0  0  0  0
 28 33  1  0  0  0  0
 28 34  1  0  0  0  0
 28 35  1  0  0  0  0
 29 30  1  0  0  0  0
 29 36  1  0  0  0  0
 29 37  1  0  0  0  0
 30 31  1  0  0  0  0
 30 38  1  0  0  0  0
 31 32  1  0  0  0  0
 31 39  1  0  0  0  0
 31 40  1  0  0  0  0
 32 33  1  0  0  0  0
 32 41  1  0  0  0  0
 32 42  1  0  0  0  0
 43 44  1  0  0  0  0
 43 45  1  0  0  0  0
 43 46  1  0  0  0  0
 46 47  1  0  0  0  0
 46 49  1  0  0  0  0
 46 53  1  0  0  0  0
 47 48  1  0  0  0  0
 49 50  1  0  0  0  0
 49 51  1  0  0  0  0
 49 52  1  0  0  0  0
 53 54  1  0  0  0  0
 53 55  1  0  0  0  0
 53 56  1  0  0  0  0
M  END
$$$$
