62 flip
                    3D
 Schrodinger Suite 2022-3.
 43 46  0  0  1  0  0  0  0  0999 V2000
    3.3650  -47.9660    7.3080 O   0  0  0  0  0  0  0  0  0  0  0  0
    3.1570  -49.0410    6.7340 C   0  0  0  0  0  0  0  0  0  0  0  0
    3.9940  -49.8000    6.2120 O   0  5  0  0  0  0  0  0  0  0  0  0
    1.7180  -49.5690    6.7060 C   0  0  0  0  0  0  0  0  0  0  0  0
    1.5390  -51.1990    7.3090 S   0  0  0  0  0  0  0  0  0  0  0  0
   -0.1770  -51.1990    7.0400 C   0  0  0  0  0  0  0  0  0  0  0  0
   -1.0480  -52.2520    7.3120 C   0  0  0  0  0  0  0  0  0  0  0  0
   -2.3990  -52.0890    7.0140 C   0  0  0  0  0  0  0  0  0  0  0  0
   -2.8550  -50.8840    6.4570 C   0  0  0  0  0  0  0  0  0  0  0  0
   -1.9600  -49.8470    6.2020 C   0  0  0  0  0  0  0  0  0  0  0  0
   -0.5860  -49.9540    6.4770 C   0  0  0  0  0  0  0  0  0  0  0  0
    0.5390  -49.0220    6.3070 C   0  0  0  0  0  0  0  0  0  0  0  0
    0.4450  -47.6400    5.7320 C   0  0  0  0  0  0  0  0  0  0  0  0
    0.3070  -46.5270    6.7870 C   0  0  0  0  0  0  0  0  0  0  0  0
   -1.0340  -46.5090    7.5240 C   0  0  0  0  0  0  0  0  0  0  0  0
   -1.9460  -45.9240    6.5340 O   0  0  0  0  0  0  0  0  0  0  0  0
   -3.1980  -45.4740    6.8210 C   0  0  0  0  0  0  0  0  0  0  0  0
   -5.7240  -44.2350    7.0040 C   0  0  0  0  0  0  0  0  0  0  0  0
   -4.9160  -44.0000    5.9160 C   0  0  0  0  0  0  0  0  0  0  0  0
   -3.6490  -44.6070    5.8240 C   0  0  0  0  0  0  0  0  0  0  0  0
   -0.7000  -53.1910    7.7510 H   0  0  0  0  0  0  0  0  0  0  0  0
   -3.1090  -52.8940    7.2160 H   0  0  0  0  0  0  0  0  0  0  0  0
   -3.9180  -50.7680    6.2300 H   0  0  0  0  0  0  0  0  0  0  0  0
   -2.6320  -48.4070    5.5360 Cl  0  0  0  0  0  0  0  0  0  0  0  0
   -0.4030  -47.5580    5.0100 H   0  0  0  0  0  0  0  0  0  0  0  0
    1.3830  -47.4270    5.1520 H   0  0  0  0  0  0  0  0  0  0  0  0
    0.4200  -45.5400    6.2730 H   0  0  0  0  0  0  0  0  0  0  0  0
    1.1150  -46.6370    7.5510 H   0  0  0  0  0  0  0  0  0  0  0  0
   -1.0240  -45.8340    8.4050 H   0  0  0  0  0  0  0  0  0  0  0  0
   -1.3810  -47.5360    7.7530 H   0  0  0  0  0  0  0  0  0  0  0  0
   -3.0240  -44.3890    4.9670 H   0  0  0  0  0  0  0  0  0  0  0  0
   -5.2980  -45.1290    8.0290 C   0  0  0  0  0  0  0  0  0  0  0  0
   -4.0450  -45.8090    7.9390 C   0  0  0  0  0  0  0  0  0  0  0  0
   -3.7670  -46.8110    8.9180 C   0  0  0  0  0  0  0  0  0  0  0  0
   -4.6280  -47.0590    9.9580 C   0  0  0  0  0  0  0  0  0  0  0  0
   -5.8300  -46.3110   10.0900 C   0  0  0  0  0  0  0  0  0  0  0  0
   -6.1610  -45.3760    9.1460 C   0  0  0  0  0  0  0  0  0  0  0  0
   -2.8840  -47.4400    8.8350 H   0  0  0  0  0  0  0  0  0  0  0  0
   -4.4230  -47.8490   10.6800 H   0  0  0  0  0  0  0  0  0  0  0  0
   -6.4940  -46.5120   10.9270 H   0  0  0  0  0  0  0  0  0  0  0  0
   -7.0950  -44.8210    9.2170 H   0  0  0  0  0  0  0  0  0  0  0  0
   -5.2430  -43.3340    5.1140 H   0  0  0  0  0  0  0  0  0  0  0  0
   -6.7020  -43.7630    7.0850 H   0  0  0  0  0  0  0  0  0  0  0  0
  1  2  2  0  0  0  0
  2  3  1  0  0  0  0
  2  4  1  0  0  0  0
  4  5  1  0  0  0  0
  4 12  2  0  0  0  0
  5  6  1  0  0  0  0
  6  7  1  0  0  0  0
  6 11  2  0  0  0  0
  7  8  2  0  0  0  0
  7 21  1  0  0  0  0
  8  9  1  0  0  0  0
  8 22  1  0  0  0  0
  9 10  2  0  0  0  0
  9 23  1  0  0  0  0
 10 11  1  0  0  0  0
 10 24  1  0  0  0  0
 11 12  1  0  0  0  0
 12 13  1  0  0  0  0
 13 25  1  0  0  0  0
 13 26  1  0  0  0  0
 13 14  1  0  0  0  0
 14 15  1  0  0  0  0
 14 27  1  0  0  0  0
 14 28  1  0  0  0  0
 15 16  1  0  0  0  0
 15 29  1  0  0  0  0
 15 30  1  0  0  0  0
 16 17  1  0  0  0  0
 17 20  2  0  0  0  0
 17 33  1  0  0  0  0
 18 19  2  0  0  0  0
 18 32  1  0  0  0  0
 18 43  1  0  0  0  0
 19 20  1  0  0  0  0
 19 42  1  0  0  0  0
 20 31  1  0  0  0  0
 32 33  2  0  0  0  0
 32 37  1  0  0  0  0
 33 34  1  0  0  0  0
 34 35  2  0  0  0  0
 34 38  1  0  0  0  0
 35 36  1  0  0  0  0
 35 39  1  0  0  0  0
 36 37  2  0  0  0  0
 36 40  1  0  0  0  0
 37 41  1  0  0  0  0
M  CHG  1   3  -1
M  END
$$$$
