CAT-17h
 OpenBabel02232411143D
Structure written by MMmdl.
 42 45  0  0  1  0  0  0  0  0999 V2000
   11.6400   -2.3020    1.2520 C   0  0  0  0  0  0  0  0  0  0  0  0
   12.9850   -2.3860    0.6470 N   0  0  0  0  0  0  0  0  0  0  0  0
   14.1690   -2.3680    1.3780 C   0  0  0  0  0  0  0  0  0  0  0  0
   14.3030   -2.4520    2.7330 N   0  0  0  0  0  0  0  0  0  0  0  0
   15.2660   -2.3270    0.5080 N   0  3  0  0  0  0  0  0  0  0  0  0
   14.8260   -2.6550   -0.9000 C   0  0  1  0  0  0  0  0  0  0  0  0
   15.4250   -1.6360   -1.8440 C   0  0  0  0  0  0  0  0  0  0  0  0
   16.2950   -2.0090   -2.8750 C   0  0  0  0  0  0  0  0  0  0  0  0
   16.7790   -1.0330   -3.7520 C   0  0  0  0  0  0  0  0  0  0  0  0
   16.4280    0.3100   -3.5920 C   0  0  0  0  0  0  0  0  0  0  0  0
   15.6010    0.6980   -2.5250 C   0  0  0  0  0  0  0  0  0  0  0  0
   15.2580    2.1110   -2.2710 C   0  0  0  0  0  0  0  0  0  0  0  0
   14.8300    2.9760   -3.3020 C   0  0  0  0  0  0  0  0  0  0  0  0
   14.4020    4.2420   -3.0590 N   0  0  0  0  0  0  0  0  0  0  0  0
   14.3770    4.6960   -1.7830 C   0  0  0  0  0  0  0  0  0  0  0  0
   14.8350    3.8990   -0.7140 C   0  0  0  0  0  0  0  0  0  0  0  0
   14.7640    4.4820    0.8920 Cl  0  0  0  0  0  0  0  0  0  0  0  0
   15.2970    2.6070   -0.9570 C   0  0  0  0  0  0  0  0  0  0  0  0
   15.0850   -0.2860   -1.6680 C   0  0  0  0  0  0  0  0  0  0  0  0
   15.0480   -4.1140   -1.2650 C   0  0  0  0  0  0  0  0  0  0  0  0
   16.2610   -4.8690   -0.7490 C   0  0  0  0  0  0  0  0  0  0  0  0
   14.8870   -5.2120   -0.2200 C   0  0  0  0  0  0  0  0  0  0  0  0
   13.2720   -2.4770   -0.8010 C   0  0  0  0  0  0  0  0  0  0  0  0
   12.4140   -2.4290   -1.6200 O   0  0  0  0  0  0  0  0  0  0  0  0
   10.9400   -2.9760    0.6860 H   0  0  0  0  0  0  0  0  0  0  0  0
   11.6650   -2.6390    2.3220 H   0  0  0  0  0  0  0  0  0  0  0  0
   11.2760   -1.2420    1.2010 H   0  0  0  0  0  0  0  0  0  0  0  0
   13.5800   -2.0520    3.3810 H   0  0  0  0  0  0  0  0  0  0  0  0
   16.1960   -2.6660    0.8760 H   0  0  0  0  0  0  0  0  0  0  0  0
   16.5970   -3.0510   -2.9920 H   0  0  0  0  0  0  0  0  0  0  0  0
   17.4480   -1.3250   -4.5680 H   0  0  0  0  0  0  0  0  0  0  0  0
   16.8030    1.0530   -4.3000 H   0  0  0  0  0  0  0  0  0  0  0  0
   14.8140    2.6380   -4.3520 H   0  0  0  0  0  0  0  0  0  0  0  0
   13.9690    5.7050   -1.6110 H   0  0  0  0  0  0  0  0  0  0  0  0
   15.6730    1.9810   -0.1440 H   0  0  0  0  0  0  0  0  0  0  0  0
   14.4200   -0.0050   -0.8520 H   0  0  0  0  0  0  0  0  0  0  0  0
   14.7050   -4.3360   -2.2920 H   0  0  0  0  0  0  0  0  0  0  0  0
   16.7840   -5.5450   -1.4230 H   0  0  0  0  0  0  0  0  0  0  0  0
   16.9720   -4.3560   -0.0990 H   0  0  0  0  0  0  0  0  0  0  0  0
   14.6380   -4.9420    0.8140 H   0  0  0  0  0  0  0  0  0  0  0  0
   14.4020   -6.1490   -0.5240 H   0  0  0  0  0  0  0  0  0  0  0  0
   15.2790   -2.3850    3.1410 H   0  0  0  0  0  0  0  0  0  0  0  0
  1  2  1  0  0  0  0
  1 25  1  0  0  0  0
  1 26  1  0  0  0  0
  1 27  1  0  0  0  0
  2  3  1  0  0  0  0
  2 23  1  0  0  0  0
  3  4  1  0  0  0  0
  3  5  2  0  0  0  0
  4 28  1  0  0  0  0
  4 42  1  0  0  0  0
  5  6  1  0  0  0  0
  5 29  1  0  0  0  0
  6  7  1  6  0  0  0
  6 20  1  0  0  0  0
  6 23  1  0  0  0  0
  7  8  2  0  0  0  0
  7 19  1  0  0  0  0
  8  9  1  0  0  0  0
  8 30  1  0  0  0  0
  9 10  2  0  0  0  0
  9 31  1  0  0  0  0
 10 11  1  0  0  0  0
 10 32  1  0  0  0  0
 11 12  1  0  0  0  0
 11 19  2  0  0  0  0
 12 13  2  0  0  0  0
 12 18  1  0  0  0  0
 13 14  1  0  0  0  0
 13 33  1  0  0  0  0
 14 15  2  0  0  0  0
 15 16  1  0  0  0  0
 15 34  1  0  0  0  0
 16 17  1  0  0  0  0
 16 18  2  0  0  0  0
 18 35  1  0  0  0  0
 19 36  1  0  0  0  0
 20 21  1  0  0  0  0
 20 22  1  0  0  0  0
 20 37  1  0  0  0  0
 21 22  1  0  0  0  0
 21 38  1  0  0  0  0
 21 39  1  0  0  0  0
 22 40  1  0  0  0  0
 22 41  1  0  0  0  0
 23 24  2  0  0  0  0
M  CHG  1   5   1
M  END
$$$$
