p38a_2e
 OpenBabel02232411163D
Structure written by MMmdl.
 46 49  0  0  0  0  0  0  0  0999 V2000
   32.1600   39.6150   27.0400 C   0  0  0  0  0  0  0  0  0  0  0  0
   33.0650   40.3660   28.0260 C   0  0  0  0  0  0  0  0  0  0  0  0
   34.8560   38.7840   27.7640 C   0  0  0  0  0  0  0  0  0  0  0  0
   34.0290   37.8970   26.8320 C   0  0  0  0  0  0  0  0  0  0  0  0
   38.3270   36.5410   17.1230 C   0  0  0  0  0  0  0  0  0  0  0  0
   34.0040   39.4960   28.6910 O   0  0  0  0  0  0  0  0  0  0  0  0
   34.4760   34.9550   21.0750 C   0  0  0  0  0  0  0  0  0  0  0  0
   37.5780   36.0570   18.1980 C   0  0  0  0  0  0  0  0  0  0  0  0
   33.8830   38.9360   23.7670 C   0  0  0  0  0  0  0  0  0  0  0  0
   32.9350   38.6870   26.0830 C   0  0  0  0  0  0  0  0  0  0  0  0
   34.7120   37.8140   21.3840 C   0  0  0  0  0  0  0  0  0  0  0  0
   35.1870   37.1920   20.1780 C   0  0  0  0  0  0  0  0  0  0  0  0
   37.6880   36.6930   15.8870 C   0  0  0  0  0  0  0  0  0  0  0  0
   36.3490   36.3550   15.6660 C   0  0  0  0  0  0  0  0  0  0  0  0
   35.6060   35.8530   16.7370 C   0  0  0  0  0  0  0  0  0  0  0  0
   34.1650   37.0150   22.4310 C   0  0  0  0  0  0  0  0  0  0  0  0
   34.7660   39.2160   21.6110 C   0  0  0  0  0  0  0  0  0  0  0  0
   35.0910   35.8470   20.0560 C   0  0  0  0  0  0  0  0  0  0  0  0
   36.2370   35.7110   17.9780 C   0  0  0  0  0  0  0  0  0  0  0  0
   33.4500   34.8230   23.3790 C   0  0  0  0  0  0  0  0  0  0  0  0
   38.0260   35.9850   19.1900 H   0  0  0  0  0  0  0  0  0  0  0  0
   38.3730   37.2300   14.8770 F   0  0  0  0  0  0  0  0  0  0  0  0
   35.4970   35.0600   18.9850 O   0  0  0  0  0  0  0  0  0  0  0  0
   34.3750   39.7910   22.7590 N   0  0  0  0  0  0  0  0  0  0  0  0
   34.3280   33.7570   20.9640 O   0  0  0  0  0  0  0  0  0  0  0  0
   34.0420   35.6240   22.2710 N   0  0  0  0  0  0  0  0  0  0  0  0
   33.7520   37.5660   23.6170 N   0  0  0  0  0  0  0  0  0  0  0  0
   33.4990   39.5010   24.9570 N   0  0  0  0  0  0  0  0  0  0  0  0
   31.4300   38.9840   27.6050 H   0  0  0  0  0  0  0  0  0  0  0  0
   31.5810   40.3640   26.4450 H   0  0  0  0  0  0  0  0  0  0  0  0
   33.6350   41.1680   27.5070 H   0  0  0  0  0  0  0  0  0  0  0  0
   32.4740   40.7760   28.8770 H   0  0  0  0  0  0  0  0  0  0  0  0
   35.4900   38.1760   28.4490 H   0  0  0  0  0  0  0  0  0  0  0  0
   35.4590   39.5220   27.1880 H   0  0  0  0  0  0  0  0  0  0  0  0
   34.7070   37.3860   26.1050 H   0  0  0  0  0  0  0  0  0  0  0  0
   33.5180   37.0960   27.4250 H   0  0  0  0  0  0  0  0  0  0  0  0
   39.3710   36.8300   17.2620 H   0  0  0  0  0  0  0  0  0  0  0  0
   32.2060   37.9480   25.6360 H   0  0  0  0  0  0  0  0  0  0  0  0
   35.6180   37.8300   19.4030 H   0  0  0  0  0  0  0  0  0  0  0  0
   35.8780   36.4970   14.6920 H   0  0  0  0  0  0  0  0  0  0  0  0
   34.5490   35.6040   16.6040 H   0  0  0  0  0  0  0  0  0  0  0  0
   35.1410   39.8840   20.8180 H   0  0  0  0  0  0  0  0  0  0  0  0
   34.0570   34.9560   24.3150 H   0  0  0  0  0  0  0  0  0  0  0  0
   32.4010   35.1710   23.5860 H   0  0  0  0  0  0  0  0  0  0  0  0
   33.4290   33.7370   23.1050 H   0  0  0  0  0  0  0  0  0  0  0  0
   33.6110   40.5210   25.1070 H   0  0  0  0  0  0  0  0  0  0  0  0
  1  2  1  0  0  0  0
  1 10  1  0  0  0  0
  1 29  1  0  0  0  0
  1 30  1  0  0  0  0
  2  6  1  0  0  0  0
  2 31  1  0  0  0  0
  2 32  1  0  0  0  0
  3  4  1  0  0  0  0
  3  6  1  0  0  0  0
  3 33  1  0  0  0  0
  3 34  1  0  0  0  0
  4 10  1  0  0  0  0
  4 35  1  0  0  0  0
  4 36  1  0  0  0  0
  5  8  2  0  0  0  0
  5 13  1  0  0  0  0
  5 37  1  0  0  0  0
  7 18  1  0  0  0  0
  7 25  2  0  0  0  0
  7 26  1  0  0  0  0
  8 19  1  0  0  0  0
  8 21  1  0  0  0  0
  9 24  2  0  0  0  0
  9 27  1  0  0  0  0
  9 28  1  0  0  0  0
 10 28  1  0  0  0  0
 10 38  1  0  0  0  0
 11 12  1  0  0  0  0
 11 16  1  0  0  0  0
 11 17  2  0  0  0  0
 12 18  2  0  0  0  0
 12 39  1  0  0  0  0
 13 14  2  0  0  0  0
 13 22  1  0  0  0  0
 14 15  1  0  0  0  0
 14 40  1  0  0  0  0
 15 19  2  0  0  0  0
 15 41  1  0  0  0  0
 16 26  1  0  0  0  0
 16 27  2  0  0  0  0
 17 24  1  0  0  0  0
 17 42  1  0  0  0  0
 18 23  1  0  0  0  0
 19 23  1  0  0  0  0
 20 26  1  0  0  0  0
 20 43  1  0  0  0  0
 20 44  1  0  0  0  0
 20 45  1  0  0  0  0
 28 46  1  0  0  0  0
M  END
$$$$
