ejm_45
 OpenBabel02232411173D
Structure written by MMmdl.
 39 41  0  0  0  0  0  0  0  0999 V2000
   -1.5500   21.5170  -27.5860 C   0  0  0  0  0  0  0  0  0  0  0  0
   -1.0660   22.5950  -28.3320 C   0  0  0  0  0  0  0  0  0  0  0  0
   -1.8670   23.1470  -29.3340 C   0  0  0  0  0  0  0  0  0  0  0  0
   -3.1420   22.6450  -29.6240 C   0  0  0  0  0  0  0  0  0  0  0  0
   -3.6040   21.5680  -28.8520 C   0  0  0  0  0  0  0  0  0  0  0  0
   -2.8250   21.0050  -27.8400 C   0  0  0  0  0  0  0  0  0  0  0  0
   -5.1600   20.9230  -29.1640 Cl  0  0  0  0  0  0  0  0  0  0  0  0
   -4.0050   23.1600  -30.7390 C   0  0  0  0  0  0  0  0  0  0  0  0
   -4.4120   22.4460  -31.6300 O   0  0  0  0  0  0  0  0  0  0  0  0
   -4.3190   24.5300  -30.6210 N   0  0  0  0  0  0  0  0  0  0  0  0
   -5.1620   25.2860  -31.4840 C   0  0  0  0  0  0  0  0  0  0  0  0
   -5.8350   24.7400  -32.5890 C   0  0  0  0  0  0  0  0  0  0  0  0
   -6.6840   25.5760  -33.3300 C   0  0  0  0  0  0  0  0  0  0  0  0
   -6.8760   26.8880  -33.0480 N   0  0  0  0  0  0  0  0  0  0  0  0
   -6.1940   27.4160  -31.9680 C   0  0  0  0  0  0  0  0  0  0  0  0
   -5.3320   26.6510  -31.1700 C   0  0  0  0  0  0  0  0  0  0  0  0
   -6.4590   28.7930  -31.7210 N   0  0  0  0  0  0  0  0  0  0  0  0
   -5.6910   29.6580  -30.8890 C   0  0  0  0  0  0  0  0  0  0  0  0
   -4.7460   29.2270  -30.2590 O   0  0  0  0  0  0  0  0  0  0  0  0
   -6.1690   31.0920  -30.9110 C   0  0  0  0  0  0  0  0  0  0  0  0
   -1.2430   24.4860  -30.2050 Cl  0  0  0  0  0  0  0  0  0  0  0  0
   -5.7930   31.5770  -31.8530 H   0  0  0  0  0  0  0  0  0  0  0  0
   -0.9280   21.0780  -26.7980 H   0  0  0  0  0  0  0  0  0  0  0  0
   -0.0720   22.9990  -28.1140 H   0  0  0  0  0  0  0  0  0  0  0  0
   -3.1960   20.1760  -27.2340 H   0  0  0  0  0  0  0  0  0  0  0  0
   -3.9100   25.0490  -29.8220 H   0  0  0  0  0  0  0  0  0  0  0  0
   -5.7310   23.6890  -32.8690 H   0  0  0  0  0  0  0  0  0  0  0  0
   -7.2450   25.1760  -34.1910 H   0  0  0  0  0  0  0  0  0  0  0  0
   -4.8000   27.1030  -30.3270 H   0  0  0  0  0  0  0  0  0  0  0  0
   -7.3320   29.1680  -32.1560 H   0  0  0  0  0  0  0  0  0  0  0  0
   -7.2910   31.1260  -30.9650 H   0  0  0  0  0  0  0  0  0  0  0  0
   -6.4910   32.7750  -29.6060 H   0  0  0  0  0  0  0  0  0  0  0  0
   -5.7320   31.9860  -29.7670 C   0  0  0  0  0  0  0  0  0  0  0  0
   -4.9460   31.5400  -28.5430 C   0  0  0  0  0  0  0  0  0  0  0  0
   -4.2740   32.4010  -29.5930 C   0  0  0  0  0  0  0  0  0  0  0  0
   -5.2100   31.9950  -27.5780 H   0  0  0  0  0  0  0  0  0  0  0  0
   -4.6300   30.4930  -28.4470 H   0  0  0  0  0  0  0  0  0  0  0  0
   -4.0610   33.4550  -29.3650 H   0  0  0  0  0  0  0  0  0  0  0  0
   -3.5100   31.9540  -30.2410 H   0  0  0  0  0  0  0  0  0  0  0  0
  1  2  2  0  0  0  0
  1  6  1  0  0  0  0
  1 23  1  0  0  0  0
  2  3  1  0  0  0  0
  2 24  1  0  0  0  0
  3  4  2  0  0  0  0
  3 21  1  0  0  0  0
  4  5  1  0  0  0  0
  4  8  1  0  0  0  0
  5  6  2  0  0  0  0
  5  7  1  0  0  0  0
  6 25  1  0  0  0  0
  8  9  2  0  0  0  0
  8 10  1  0  0  0  0
 10 11  1  0  0  0  0
 10 26  1  0  0  0  0
 11 12  2  0  0  0  0
 11 16  1  0  0  0  0
 12 13  1  0  0  0  0
 12 27  1  0  0  0  0
 13 14  2  0  0  0  0
 13 28  1  0  0  0  0
 14 15  1  0  0  0  0
 15 16  2  0  0  0  0
 15 17  1  0  0  0  0
 16 29  1  0  0  0  0
 17 18  1  0  0  0  0
 17 30  1  0  0  0  0
 18 19  2  0  0  0  0
 18 20  1  0  0  0  0
 20 22  1  0  0  0  0
 20 31  1  0  0  0  0
 20 33  1  0  0  0  0
 32 33  1  0  0  0  0
 33 34  1  0  0  0  0
 33 35  1  0  0  0  0
 34 35  1  0  0  0  0
 34 36  1  0  0  0  0
 34 37  1  0  0  0  0
 35 38  1  0  0  0  0
 35 39  1  0  0  0  0
M  END
$$$$
