CAT-17a
 OpenBabel02232411143D
Structure written by MMmdl.
 43 46  0  0  1  0  0  0  0  0999 V2000
   11.6700   -2.6440    1.3250 C   0  0  0  0  0  0  0  0  0  0  0  0
   12.9820   -2.4380    0.6770 N   0  0  0  0  0  0  0  0  0  0  0  0
   14.1740   -2.4300    1.4020 C   0  0  0  0  0  0  0  0  0  0  0  0
   14.3040   -2.5240    2.7570 N   0  0  0  0  0  0  0  0  0  0  0  0
   15.2630   -2.3530    0.5280 N   0  3  0  0  0  0  0  0  0  0  0  0
   14.8190   -2.6760   -0.8810 C   0  0  1  0  0  0  0  0  0  0  0  0
   15.4240   -1.6550   -1.8170 C   0  0  0  0  0  0  0  0  0  0  0  0
   16.3240   -2.0320   -2.8220 C   0  0  0  0  0  0  0  0  0  0  0  0
   16.8350   -1.0590   -3.6870 C   0  0  0  0  0  0  0  0  0  0  0  0
   16.4830    0.2840   -3.5360 C   0  0  0  0  0  0  0  0  0  0  0  0
   15.6270    0.6770   -2.4940 C   0  0  0  0  0  0  0  0  0  0  0  0
   15.3020    2.1000   -2.2500 C   0  0  0  0  0  0  0  0  0  0  0  0
   15.3260    2.5870   -0.9320 C   0  0  0  0  0  0  0  0  0  0  0  0
   14.9190    3.8970   -0.6760 C   0  0  0  0  0  0  0  0  0  0  0  0
   14.8310    4.4270    0.9590 Cl  0  0  0  0  0  0  0  0  0  0  0  0
   14.5380    4.7640   -1.7020 C   0  0  0  0  0  0  0  0  0  0  0  0
   14.5830    4.2750   -3.0120 C   0  0  0  0  0  0  0  0  0  0  0  0
   14.1560    5.3240   -4.2990 Cl  0  0  0  0  0  0  0  0  0  0  0  0
   14.9440    2.9560   -3.3030 C   0  0  0  0  0  0  0  0  0  0  0  0
   15.0800   -0.3050   -1.6540 C   0  0  0  0  0  0  0  0  0  0  0  0
   15.0420   -4.1350   -1.2510 C   0  0  0  0  0  0  0  0  0  0  0  0
   16.2420   -4.9010   -0.7230 C   0  0  0  0  0  0  0  0  0  0  0  0
   14.8590   -5.2390   -0.2140 C   0  0  0  0  0  0  0  0  0  0  0  0
   13.2640   -2.5150   -0.7730 C   0  0  0  0  0  0  0  0  0  0  0  0
   12.4030   -2.4580   -1.5900 O   0  0  0  0  0  0  0  0  0  0  0  0
   11.5750   -3.7130    1.6620 H   0  0  0  0  0  0  0  0  0  0  0  0
   11.5840   -1.9720    2.2140 H   0  0  0  0  0  0  0  0  0  0  0  0
   10.8520   -2.4010    0.5960 H   0  0  0  0  0  0  0  0  0  0  0  0
   13.5710   -2.1300    3.3980 H   0  0  0  0  0  0  0  0  0  0  0  0
   16.2030   -2.6710    0.8860 H   0  0  0  0  0  0  0  0  0  0  0  0
   16.6310   -3.0740   -2.9260 H   0  0  0  0  0  0  0  0  0  0  0  0
   17.5260   -1.3540   -4.4840 H   0  0  0  0  0  0  0  0  0  0  0  0
   16.8810    1.0270   -4.2320 H   0  0  0  0  0  0  0  0  0  0  0  0
   15.6500    1.9360   -0.1180 H   0  0  0  0  0  0  0  0  0  0  0  0
   14.1910    5.7790   -1.4870 H   0  0  0  0  0  0  0  0  0  0  0  0
   14.9340    2.5900   -4.3350 H   0  0  0  0  0  0  0  0  0  0  0  0
   14.3870   -0.0210   -0.8620 H   0  0  0  0  0  0  0  0  0  0  0  0
   14.7110   -4.3500   -2.2830 H   0  0  0  0  0  0  0  0  0  0  0  0
   16.7700   -5.5760   -1.3930 H   0  0  0  0  0  0  0  0  0  0  0  0
   16.9480   -4.3960   -0.0610 H   0  0  0  0  0  0  0  0  0  0  0  0
   14.6000   -4.9760    0.8190 H   0  0  0  0  0  0  0  0  0  0  0  0
   14.3720   -6.1710   -0.5300 H   0  0  0  0  0  0  0  0  0  0  0  0
   15.2770   -2.4270    3.1650 H   0  0  0  0  0  0  0  0  0  0  0  0
  1  2  1  0  0  0  0
  1 26  1  0  0  0  0
  1 27  1  0  0  0  0
  1 28  1  0  0  0  0
  2  3  1  0  0  0  0
  2 24  1  0  0  0  0
  3  4  1  0  0  0  0
  3  5  2  0  0  0  0
  4 29  1  0  0  0  0
  4 43  1  0  0  0  0
  5  6  1  0  0  0  0
  5 30  1  0  0  0  0
  6  7  1  6  0  0  0
  6 21  1  0  0  0  0
  6 24  1  0  0  0  0
  7  8  2  0  0  0  0
  7 20  1  0  0  0  0
  8  9  1  0  0  0  0
  8 31  1  0  0  0  0
  9 10  2  0  0  0  0
  9 32  1  0  0  0  0
 10 11  1  0  0  0  0
 10 33  1  0  0  0  0
 11 12  1  0  0  0  0
 11 20  2  0  0  0  0
 12 13  2  0  0  0  0
 12 19  1  0  0  0  0
 13 14  1  0  0  0  0
 13 34  1  0  0  0  0
 14 15  1  0  0  0  0
 14 16  2  0  0  0  0
 16 17  1  0  0  0  0
 16 35  1  0  0  0  0
 17 18  1  0  0  0  0
 17 19  2  0  0  0  0
 19 36  1  0  0  0  0
 20 37  1  0  0  0  0
 21 22  1  0  0  0  0
 21 23  1  0  0  0  0
 21 38  1  0  0  0  0
 22 23  1  0  0  0  0
 22 39  1  0  0  0  0
 22 40  1  0  0  0  0
 23 41  1  0  0  0  0
 23 42  1  0  0  0  0
 24 25  2  0  0  0  0
M  CHG  1   5   1
M  END
$$$$
