CAT-4i
 OpenBabel02232411143D
Structure written by MMmdl.
 45 48  0  0  1  0  0  0  0  0999 V2000
   11.4870   -3.0600    1.8150 C   0  0  0  0  0  0  0  0  0  0  0  0
   12.7650   -3.1020    1.0760 N   0  0  0  0  0  0  0  0  0  0  0  0
   14.0010   -2.8490    1.6700 C   0  0  0  0  0  0  0  0  0  0  0  0
   14.2510   -2.6370    2.9860 N   0  0  0  0  0  0  0  0  0  0  0  0
   15.0110   -2.8960    0.7120 N   0  3  0  0  0  0  0  0  0  0  0  0
   14.4960   -3.5410   -0.5550 C   0  0  2  0  0  0  0  0  0  0  0  0
   15.0150   -4.9660   -0.5410 C   0  0  0  0  0  0  0  0  0  0  0  0
   14.1900   -6.0380   -0.1660 C   0  0  0  0  0  0  0  0  0  0  0  0
   14.7320   -7.3150    0.0010 C   0  0  0  0  0  0  0  0  0  0  0  0
   16.0980   -7.5350   -0.2090 C   0  0  0  0  0  0  0  0  0  0  0  0
   16.9240   -6.4650   -0.5770 C   0  0  0  0  0  0  0  0  0  0  0  0
   16.3860   -5.1860   -0.7450 C   0  0  0  0  0  0  0  0  0  0  0  0
   14.7820   -2.6550   -1.7480 C   0  0  0  0  0  0  0  0  0  0  0  0
   14.8580   -3.2360   -3.0180 C   0  0  0  0  0  0  0  0  0  0  0  0
   14.9930   -2.4200   -4.1440 C   0  0  0  0  0  0  0  0  0  0  0  0
   15.0690   -1.0330   -4.0120 C   0  0  0  0  0  0  0  0  0  0  0  0
   14.9830   -0.4410   -2.7370 C   0  0  0  0  0  0  0  0  0  0  0  0
   14.9970    1.0360   -2.5900 C   0  0  0  0  0  0  0  0  0  0  0  0
   15.5630    1.6780   -1.4750 C   0  0  0  0  0  0  0  0  0  0  0  0
   15.5110    3.0740   -1.3910 C   0  0  0  0  0  0  0  0  0  0  0  0
   14.9020    3.7970   -2.4160 C   0  0  0  0  0  0  0  0  0  0  0  0
   14.3670    3.0960   -3.5130 C   0  0  0  0  0  0  0  0  0  0  0  0
   14.4050    1.7440   -3.6030 N   0  0  0  0  0  0  0  0  0  0  0  0
   14.8410   -1.2590   -1.6070 C   0  0  0  0  0  0  0  0  0  0  0  0
   12.9430   -3.4830   -0.3390 C   0  0  0  0  0  0  0  0  0  0  0  0
   12.0250   -3.6360   -1.0770 O   0  0  0  0  0  0  0  0  0  0  0  0
   11.6410   -3.3670    2.8850 H   0  0  0  0  0  0  0  0  0  0  0  0
   11.0690   -2.0200    1.7860 H   0  0  0  0  0  0  0  0  0  0  0  0
   10.7610   -3.7740    1.3400 H   0  0  0  0  0  0  0  0  0  0  0  0
   15.2450   -2.4590    3.2980 H   0  0  0  0  0  0  0  0  0  0  0  0
   16.0090   -3.0370    1.0230 H   0  0  0  0  0  0  0  0  0  0  0  0
   13.1240   -5.8990    0.0170 H   0  0  0  0  0  0  0  0  0  0  0  0
   14.0800   -8.1420    0.3030 H   0  0  0  0  0  0  0  0  0  0  0  0
   16.5110   -8.5410   -0.0740 H   0  0  0  0  0  0  0  0  0  0  0  0
   18.0040   -6.6100   -0.6620 H   0  0  0  0  0  0  0  0  0  0  0  0
   17.0310   -4.3410   -0.9990 H   0  0  0  0  0  0  0  0  0  0  0  0
   14.8040   -4.3210   -3.1110 H   0  0  0  0  0  0  0  0  0  0  0  0
   15.0230   -2.8780   -5.1340 H   0  0  0  0  0  0  0  0  0  0  0  0
   15.1910   -0.4100   -4.9090 H   0  0  0  0  0  0  0  0  0  0  0  0
   16.0280    1.1010   -0.6740 H   0  0  0  0  0  0  0  0  0  0  0  0
   15.9400    3.5820   -0.5220 H   0  0  0  0  0  0  0  0  0  0  0  0
   14.8300    4.8880   -2.3690 H   0  0  0  0  0  0  0  0  0  0  0  0
   13.8850    3.6350   -4.3470 H   0  0  0  0  0  0  0  0  0  0  0  0
   14.7760   -0.8160   -0.6090 H   0  0  0  0  0  0  0  0  0  0  0  0
   13.5510   -2.1830    3.6200 H   0  0  0  0  0  0  0  0  0  0  0  0
  1  2  1  0  0  0  0
  1 27  1  0  0  0  0
  1 28  1  0  0  0  0
  1 29  1  0  0  0  0
  2  3  1  0  0  0  0
  2 25  1  0  0  0  0
  3  4  1  0  0  0  0
  3  5  2  0  0  0  0
  4 30  1  0  0  0  0
  4 45  1  0  0  0  0
  5  6  1  0  0  0  0
  5 31  1  0  0  0  0
  6  7  1  6  0  0  0
  6 13  1  0  0  0  0
  6 25  1  0  0  0  0
  7  8  2  0  0  0  0
  7 12  1  0  0  0  0
  8  9  1  0  0  0  0
  8 32  1  0  0  0  0
  9 10  2  0  0  0  0
  9 33  1  0  0  0  0
 10 11  1  0  0  0  0
 10 34  1  0  0  0  0
 11 12  2  0  0  0  0
 11 35  1  0  0  0  0
 12 36  1  0  0  0  0
 13 14  2  0  0  0  0
 13 24  1  0  0  0  0
 14 15  1  0  0  0  0
 14 37  1  0  0  0  0
 15 16  2  0  0  0  0
 15 38  1  0  0  0  0
 16 17  1  0  0  0  0
 16 39  1  0  0  0  0
 17 18  1  0  0  0  0
 17 24  2  0  0  0  0
 18 19  2  0  0  0  0
 18 23  1  0  0  0  0
 19 20  1  0  0  0  0
 19 40  1  0  0  0  0
 20 21  2  0  0  0  0
 20 41  1  0  0  0  0
 21 22  1  0  0  0  0
 21 42  1  0  0  0  0
 22 23  2  0  0  0  0
 22 43  1  0  0  0  0
 24 44  1  0  0  0  0
 25 26  2  0  0  0  0
M  CHG  1   5   1
M  END
$$$$
