CAT-4l
                    3D
 Schrodinger Suite 2022-3.
 44 47  0  0  1  0  0  0  0  0999 V2000
   11.7400   -2.5070    1.3080 C   0  0  0  0  0  0  0  0  0  0  0  0
   13.0400   -2.7960    0.6690 N   0  0  0  0  0  0  0  0  0  0  0  0
   14.2480   -2.7010    1.3650 C   0  0  0  0  0  0  0  0  0  0  0  0
   14.3900   -2.6110    2.7170 N   0  0  0  0  0  0  0  0  0  0  0  0
   15.3110   -2.7810    0.4760 N   0  3  0  0  0  0  0  0  0  0  0  0
   14.8430   -3.1330   -0.9230 C   0  0  2  0  0  0  0  0  0  0  0  0
   15.2410   -4.5610   -1.2460 C   0  0  0  0  0  0  0  0  0  0  0  0
   14.3270   -5.4730   -1.7940 C   0  0  0  0  0  0  0  0  0  0  0  0
   14.6890   -6.8150   -1.9500 C   0  0  0  0  0  0  0  0  0  0  0  0
   15.9610   -7.2510   -1.5710 C   0  0  0  0  0  0  0  0  0  0  0  0
   16.8980   -6.3290   -1.0960 C   0  0  0  0  0  0  0  0  0  0  0  0
   16.5440   -4.9870   -0.9410 C   0  0  0  0  0  0  0  0  0  0  0  0
   15.2910   -2.0590   -1.8960 C   0  0  0  0  0  0  0  0  0  0  0  0
   15.8080   -2.3770   -3.1560 C   0  0  0  0  0  0  0  0  0  0  0  0
   16.1220   -1.3470   -4.0510 C   0  0  0  0  0  0  0  0  0  0  0  0
   15.9170   -0.0090   -3.7100 C   0  0  0  0  0  0  0  0  0  0  0  0
   15.3980    0.3140   -2.4420 C   0  0  0  0  0  0  0  0  0  0  0  0
   15.1330    1.7160   -2.0480 C   0  0  0  0  0  0  0  0  0  0  0  0
   15.5360    2.2300   -0.7910 C   0  0  0  0  0  0  0  0  0  0  0  0
   15.2700    3.5130   -0.4300 N   0  0  0  0  0  0  0  0  0  0  0  0
   14.5940    4.2840   -1.3140 C   0  0  0  0  0  0  0  0  0  0  0  0
   14.1870    3.7760   -2.5730 C   0  0  0  0  0  0  0  0  0  0  0  0
   14.4560    2.5010   -2.9380 N   0  0  0  0  0  0  0  0  0  0  0  0
   15.0980   -0.7130   -1.5400 C   0  0  0  0  0  0  0  0  0  0  0  0
   13.2850   -2.9930   -0.7680 C   0  0  0  0  0  0  0  0  0  0  0  0
   12.4020   -3.0060   -1.5650 O   0  0  0  0  0  0  0  0  0  0  0  0
   10.9100   -2.9130    0.6700 H   0  0  0  0  0  0  0  0  0  0  0  0
   11.6900   -2.9980    2.3180 H   0  0  0  0  0  0  0  0  0  0  0  0
   11.6240   -1.3970    1.4260 H   0  0  0  0  0  0  0  0  0  0  0  0
   15.3620   -2.5070    3.1190 H   0  0  0  0  0  0  0  0  0  0  0  0
   16.2720   -3.0190    0.8330 H   0  0  0  0  0  0  0  0  0  0  0  0
   13.3300   -5.1550   -2.1080 H   0  0  0  0  0  0  0  0  0  0  0  0
   13.9640   -7.5270   -2.3590 H   0  0  0  0  0  0  0  0  0  0  0  0
   16.2180   -8.3120   -1.6290 H   0  0  0  0  0  0  0  0  0  0  0  0
   17.9050   -6.6540   -0.8180 H   0  0  0  0  0  0  0  0  0  0  0  0
   17.2840   -4.2760   -0.5710 H   0  0  0  0  0  0  0  0  0  0  0  0
   15.9660   -3.4190   -3.4450 H   0  0  0  0  0  0  0  0  0  0  0  0
   16.5360   -1.5920   -5.0340 H   0  0  0  0  0  0  0  0  0  0  0  0
   16.1640    0.7810   -4.4310 H   0  0  0  0  0  0  0  0  0  0  0  0
   16.0680    1.5990   -0.0660 H   0  0  0  0  0  0  0  0  0  0  0  0
   14.3610    5.3210   -1.0200 H   0  0  0  0  0  0  0  0  0  0  0  0
   13.6350    4.4100   -3.2900 H   0  0  0  0  0  0  0  0  0  0  0  0
   14.7130   -0.4760   -0.5500 H   0  0  0  0  0  0  0  0  0  0  0  0
   13.6570   -2.1620    3.3180 H   0  0  0  0  0  0  0  0  0  0  0  0
  1  2  1  0  0  0  0
  1 27  1  0  0  0  0
  1 28  1  0  0  0  0
  1 29  1  0  0  0  0
  2  3  1  0  0  0  0
  2 25  1  0  0  0  0
  3  4  1  0  0  0  0
  3  5  2  0  0  0  0
  4 30  1  0  0  0  0
  4 44  1  0  0  0  0
  5  6  1  0  0  0  0
  5 31  1  0  0  0  0
  6  7  1  0  0  0  0
  6 13  1  0  0  0  0
  6 25  1  0  0  0  0
  7  8  2  0  0  0  0
  7 12  1  0  0  0  0
  8  9  1  0  0  0  0
  8 32  1  0  0  0  0
  9 10  2  0  0  0  0
  9 33  1  0  0  0  0
 10 11  1  0  0  0  0
 10 34  1  0  0  0  0
 11 12  2  0  0  0  0
 11 35  1  0  0  0  0
 12 36  1  0  0  0  0
 13 14  2  0  0  0  0
 13 24  1  0  0  0  0
 14 15  1  0  0  0  0
 14 37  1  0  0  0  0
 15 16  2  0  0  0  0
 15 38  1  0  0  0  0
 16 17  1  0  0  0  0
 16 39  1  0  0  0  0
 17 18  1  0  0  0  0
 17 24  2  0  0  0  0
 18 19  2  0  0  0  0
 18 23  1  0  0  0  0
 19 20  1  0  0  0  0
 19 40  1  0  0  0  0
 20 21  2  0  0  0  0
 21 22  1  0  0  0  0
 21 41  1  0  0  0  0
 22 23  2  0  0  0  0
 22 42  1  0  0  0  0
 24 43  1  0  0  0  0
 25 26  2  0  0  0  0
M  CHG  1   5   1
M  END
$$$$
