p38a_2p
 OpenBabel02232411163D
Structure written by MMmdl.
 58 61  0  0  0  0  0  0  0  0999 V2000
   36.3300   35.8340   16.0960 C   0  0  0  0  0  0  0  0  0  0  0  0
   34.2420   35.0620   21.6150 C   0  0  0  0  0  0  0  0  0  0  0  0
   35.5650   35.4300   17.1860 C   0  0  0  0  0  0  0  0  0  0  0  0
   33.9800   39.2370   24.0450 C   0  0  0  0  0  0  0  0  0  0  0  0
   34.6120   37.9170   21.7120 C   0  0  0  0  0  0  0  0  0  0  0  0
   35.0280   37.1930   20.5420 C   0  0  0  0  0  0  0  0  0  0  0  0
   37.6180   36.3070   16.3770 C   0  0  0  0  0  0  0  0  0  0  0  0
   38.1610   36.3450   17.6650 C   0  0  0  0  0  0  0  0  0  0  0  0
   37.3650   35.9530   18.7460 C   0  0  0  0  0  0  0  0  0  0  0  0
   34.1020   37.2150   22.8440 C   0  0  0  0  0  0  0  0  0  0  0  0
   34.6990   39.3310   21.8170 C   0  0  0  0  0  0  0  0  0  0  0  0
   34.8810   35.8490   20.5230 C   0  0  0  0  0  0  0  0  0  0  0  0
   36.0650   35.4990   18.5030 C   0  0  0  0  0  0  0  0  0  0  0  0
   34.3420   34.9470   17.0080 F   0  0  0  0  0  0  0  0  0  0  0  0
   35.2250   34.9730   19.4940 O   0  0  0  0  0  0  0  0  0  0  0  0
   34.3930   40.0030   22.9370 N   0  0  0  0  0  0  0  0  0  0  0  0
   33.9870   33.8790   21.5640 O   0  0  0  0  0  0  0  0  0  0  0  0
   33.8890   35.8250   22.7850 N   0  0  0  0  0  0  0  0  0  0  0  0
   33.7970   37.8700   24.0100 N   0  0  0  0  0  0  0  0  0  0  0  0
   33.6740   39.9110   25.2100 N   0  0  0  0  0  0  0  0  0  0  0  0
   35.9400   35.8130   15.0740 H   0  0  0  0  0  0  0  0  0  0  0  0
   35.4620   37.7610   19.7140 H   0  0  0  0  0  0  0  0  0  0  0  0
   39.1810   36.7050   17.8260 H   0  0  0  0  0  0  0  0  0  0  0  0
   37.7540   36.0240   19.7640 H   0  0  0  0  0  0  0  0  0  0  0  0
   35.0340   39.9230   20.9490 H   0  0  0  0  0  0  0  0  0  0  0  0
   33.8820   40.9280   25.2720 H   0  0  0  0  0  0  0  0  0  0  0  0
   38.3490   36.7720   15.3670 F   0  0  0  0  0  0  0  0  0  0  0  0
   32.6840   39.3740   28.8590 C   0  0  0  0  0  0  0  0  0  0  0  0
   32.6620   39.9840   27.4530 C   0  0  0  0  0  0  0  0  0  0  0  0
   33.6120   39.2000   26.5240 C   0  0  0  0  0  0  0  0  0  0  0  0
   35.0230   39.1000   27.1480 C   0  0  0  0  0  0  0  0  0  0  0  0
   34.9320   38.5490   28.5770 C   0  0  0  0  0  0  0  0  0  0  0  0
   34.0270   39.3250   29.3940 O   0  0  0  0  0  0  0  0  0  0  0  0
   32.2590   38.3440   28.8560 H   0  0  0  0  0  0  0  0  0  0  0  0
   32.1640   40.0340   29.5920 H   0  0  0  0  0  0  0  0  0  0  0  0
   32.9820   41.0520   27.5070 H   0  0  0  0  0  0  0  0  0  0  0  0
   31.6260   39.9450   27.0400 H   0  0  0  0  0  0  0  0  0  0  0  0
   33.2040   38.1650   26.3590 H   0  0  0  0  0  0  0  0  0  0  0  0
   35.6540   38.4130   26.5350 H   0  0  0  0  0  0  0  0  0  0  0  0
   35.5030   40.1070   27.1620 H   0  0  0  0  0  0  0  0  0  0  0  0
   34.5960   37.4860   28.5700 H   0  0  0  0  0  0  0  0  0  0  0  0
   35.9010   38.6660   29.1140 H   0  0  0  0  0  0  0  0  0  0  0  0
   33.2450   35.1340   23.9540 C   0  0  0  0  0  0  0  0  0  0  0  0
   32.3970   35.7840   24.3100 H   0  0  0  0  0  0  0  0  0  0  0  0
   32.8350   34.1500   23.5960 H   0  0  0  0  0  0  0  0  0  0  0  0
   34.2370   34.8950   25.1120 C   0  0  0  0  0  0  0  0  0  0  0  0
   34.7790   33.9290   24.9670 H   0  0  0  0  0  0  0  0  0  0  0  0
   35.0100   35.7110   25.1140 H   0  0  0  0  0  0  0  0  0  0  0  0
   33.5600   34.9260   26.4900 C   0  0  0  0  0  0  0  0  0  0  0  0
   32.9040   35.8370   26.5520 H   0  0  0  0  0  0  0  0  0  0  0  0
   34.3760   35.0930   27.2540 H   0  0  0  0  0  0  0  0  0  0  0  0
   32.6510   33.4930   26.9500 S   0  0  0  0  0  0  0  0  0  0  0  0
   31.8300   32.9800   25.8300 O   0  0  0  0  0  0  0  0  0  0  0  0
   31.7860   33.7850   28.1250 O   0  0  0  0  0  0  0  0  0  0  0  0
   33.8530   32.3210   27.4080 C   0  0  0  0  0  0  0  0  0  0  0  0
   34.5500   32.7380   28.1830 H   0  0  0  0  0  0  0  0  0  0  0  0
   33.3990   31.3980   27.8530 H   0  0  0  0  0  0  0  0  0  0  0  0
   34.4790   31.9920   26.5440 H   0  0  0  0  0  0  0  0  0  0  0  0
  1  3  2  0  0  0  0
  1  7  1  0  0  0  0
  1 21  1  0  0  0  0
  2 12  1  0  0  0  0
  2 17  2  0  0  0  0
  2 18  1  0  0  0  0
  3 13  1  0  0  0  0
  3 14  1  0  0  0  0
  4 16  2  0  0  0  0
  4 19  1  0  0  0  0
  4 20  1  0  0  0  0
  5  6  1  0  0  0  0
  5 10  1  0  0  0  0
  5 11  2  0  0  0  0
  6 12  2  0  0  0  0
  6 22  1  0  0  0  0
  7  8  2  0  0  0  0
  7 27  1  0  0  0  0
  8  9  1  0  0  0  0
  8 23  1  0  0  0  0
  9 13  2  0  0  0  0
  9 24  1  0  0  0  0
 10 18  1  0  0  0  0
 10 19  2  0  0  0  0
 11 16  1  0  0  0  0
 11 25  1  0  0  0  0
 12 15  1  0  0  0  0
 13 15  1  0  0  0  0
 18 43  1  0  0  0  0
 20 26  1  0  0  0  0
 20 30  1  0  0  0  0
 28 29  1  0  0  0  0
 28 33  1  0  0  0  0
 28 34  1  0  0  0  0
 28 35  1  0  0  0  0
 29 30  1  0  0  0  0
 29 36  1  0  0  0  0
 29 37  1  0  0  0  0
 30 31  1  0  0  0  0
 30 38  1  0  0  0  0
 31 32  1  0  0  0  0
 31 39  1  0  0  0  0
 31 40  1  0  0  0  0
 32 33  1  0  0  0  0
 32 41  1  0  0  0  0
 32 42  1  0  0  0  0
 43 44  1  0  0  0  0
 43 45  1  0  0  0  0
 43 46  1  0  0  0  0
 46 47  1  0  0  0  0
 46 48  1  0  0  0  0
 46 49  1  0  0  0  0
 49 50  1  0  0  0  0
 49 51  1  0  0  0  0
 49 52  1  0  0  0  0
 52 53  2  0  0  0  0
 52 54  2  0  0  0  0
 52 55  1  0  0  0  0
 55 56  1  0  0  0  0
 55 57  1  0  0  0  0
 55 58  1  0  0  0  0
M  END
$$$$
