p38a_2o
 OpenBabel02232411163D
Structure written by MMmdl.
 55 58  0  0  0  0  0  0  0  0999 V2000
   36.3530   36.0070   15.8430 C   0  0  0  0  0  0  0  0  0  0  0  0
   34.5480   34.9600   21.3730 C   0  0  0  0  0  0  0  0  0  0  0  0
   35.6950   35.5350   16.9740 C   0  0  0  0  0  0  0  0  0  0  0  0
   34.0230   39.0340   23.9360 C   0  0  0  0  0  0  0  0  0  0  0  0
   34.7760   37.8260   21.5710 C   0  0  0  0  0  0  0  0  0  0  0  0
   35.2330   37.1640   20.3780 C   0  0  0  0  0  0  0  0  0  0  0  0
   37.6440   36.5160   16.0370 C   0  0  0  0  0  0  0  0  0  0  0  0
   38.2860   36.5330   17.2780 C   0  0  0  0  0  0  0  0  0  0  0  0
   37.5910   36.0860   18.4070 C   0  0  0  0  0  0  0  0  0  0  0  0
   34.2910   37.0620   22.6710 C   0  0  0  0  0  0  0  0  0  0  0  0
   34.7960   39.2380   21.7320 C   0  0  0  0  0  0  0  0  0  0  0  0
   35.1540   35.8150   20.3150 C   0  0  0  0  0  0  0  0  0  0  0  0
   36.2950   35.5870   18.2490 C   0  0  0  0  0  0  0  0  0  0  0  0
   34.4840   35.0040   16.8780 F   0  0  0  0  0  0  0  0  0  0  0  0
   35.5690   34.9780   19.2820 O   0  0  0  0  0  0  0  0  0  0  0  0
   34.4400   39.8560   22.8700 N   0  0  0  0  0  0  0  0  0  0  0  0
   34.3630   33.7670   21.2840 O   0  0  0  0  0  0  0  0  0  0  0  0
   34.1970   35.6590   22.5840 N   0  0  0  0  0  0  0  0  0  0  0  0
   33.9160   37.6580   23.8460 N   0  0  0  0  0  0  0  0  0  0  0  0
   33.6970   39.6330   25.1280 N   0  0  0  0  0  0  0  0  0  0  0  0
   35.8780   36.0060   14.8580 H   0  0  0  0  0  0  0  0  0  0  0  0
   35.6410   37.7800   19.5730 H   0  0  0  0  0  0  0  0  0  0  0  0
   39.3050   36.9180   17.3760 H   0  0  0  0  0  0  0  0  0  0  0  0
   38.0550   36.1530   19.3940 H   0  0  0  0  0  0  0  0  0  0  0  0
   35.1130   39.8790   20.8930 H   0  0  0  0  0  0  0  0  0  0  0  0
   33.7540   40.6620   25.2300 H   0  0  0  0  0  0  0  0  0  0  0  0
   38.2720   37.0400   14.9870 F   0  0  0  0  0  0  0  0  0  0  0  0
   33.2480   40.5750   28.1910 C   0  0  0  0  0  0  0  0  0  0  0  0
   32.3780   39.7490   27.2330 C   0  0  0  0  0  0  0  0  0  0  0  0
   33.1920   38.8360   26.2940 C   0  0  0  0  0  0  0  0  0  0  0  0
   34.3450   38.1390   27.0450 C   0  0  0  0  0  0  0  0  0  0  0  0
   35.1310   39.1080   27.9280 C   0  0  0  0  0  0  0  0  0  0  0  0
   34.2510   39.7830   28.8580 O   0  0  0  0  0  0  0  0  0  0  0  0
   32.6410   40.9630   29.0410 H   0  0  0  0  0  0  0  0  0  0  0  0
   33.7560   41.4000   27.6450 H   0  0  0  0  0  0  0  0  0  0  0  0
   31.7510   40.4460   26.6240 H   0  0  0  0  0  0  0  0  0  0  0  0
   31.6880   39.0930   27.8200 H   0  0  0  0  0  0  0  0  0  0  0  0
   32.4970   38.0450   25.8840 H   0  0  0  0  0  0  0  0  0  0  0  0
   33.8930   37.3300   27.6740 H   0  0  0  0  0  0  0  0  0  0  0  0
   35.0360   37.6500   26.3150 H   0  0  0  0  0  0  0  0  0  0  0  0
   35.8260   38.5690   28.6120 H   0  0  0  0  0  0  0  0  0  0  0  0
   35.6600   39.8710   27.3130 H   0  0  0  0  0  0  0  0  0  0  0  0
   33.6430   34.8800   23.7510 C   0  0  0  0  0  0  0  0  0  0  0  0
   34.0970   33.8520   23.7120 H   0  0  0  0  0  0  0  0  0  0  0  0
   33.9700   35.4020   24.6970 H   0  0  0  0  0  0  0  0  0  0  0  0
   32.1170   34.8130   23.6820 C   0  0  0  0  0  0  0  0  0  0  0  0
   31.7210   35.8660   23.5950 H   0  0  0  0  0  0  0  0  0  0  0  0
   31.7990   34.2960   22.7360 H   0  0  0  0  0  0  0  0  0  0  0  0
   31.3510   34.0220   25.0710 S   0  0  0  0  0  0  0  0  0  0  0  0
   32.3520   33.5420   26.0470 O   0  0  0  0  0  0  0  0  0  0  0  0
   30.5320   32.8850   24.5930 O   0  0  0  0  0  0  0  0  0  0  0  0
   30.3500   35.2590   25.7540 C   0  0  0  0  0  0  0  0  0  0  0  0
   29.6040   35.6690   25.0240 H   0  0  0  0  0  0  0  0  0  0  0  0
   29.7540   34.9090   26.6390 H   0  0  0  0  0  0  0  0  0  0  0  0
   30.9440   36.1350   26.1290 H   0  0  0  0  0  0  0  0  0  0  0  0
  1  3  2  0  0  0  0
  1  7  1  0  0  0  0
  1 21  1  0  0  0  0
  2 12  1  0  0  0  0
  2 17  2  0  0  0  0
  2 18  1  0  0  0  0
  3 13  1  0  0  0  0
  3 14  1  0  0  0  0
  4 16  2  0  0  0  0
  4 19  1  0  0  0  0
  4 20  1  0  0  0  0
  5  6  1  0  0  0  0
  5 10  1  0  0  0  0
  5 11  2  0  0  0  0
  6 12  2  0  0  0  0
  6 22  1  0  0  0  0
  7  8  2  0  0  0  0
  7 27  1  0  0  0  0
  8  9  1  0  0  0  0
  8 23  1  0  0  0  0
  9 13  2  0  0  0  0
  9 24  1  0  0  0  0
 10 18  1  0  0  0  0
 10 19  2  0  0  0  0
 11 16  1  0  0  0  0
 11 25  1  0  0  0  0
 12 15  1  0  0  0  0
 13 15  1  0  0  0  0
 18 43  1  0  0  0  0
 20 26  1  0  0  0  0
 20 30  1  0  0  0  0
 28 29  1  0  0  0  0
 28 33  1  0  0  0  0
 28 34  1  0  0  0  0
 28 35  1  0  0  0  0
 29 30  1  0  0  0  0
 29 36  1  0  0  0  0
 29 37  1  0  0  0  0
 30 31  1  0  0  0  0
 30 38  1  0  0  0  0
 31 32  1  0  0  0  0
 31 39  1  0  0  0  0
 31 40  1  0  0  0  0
 32 33  1  0  0  0  0
 32 41  1  0  0  0  0
 32 42  1  0  0  0  0
 43 44  1  0  0  0  0
 43 45  1  0  0  0  0
 43 46  1  0  0  0  0
 46 47  1  0  0  0  0
 46 48  1  0  0  0  0
 46 49  1  0  0  0  0
 49 50  2  0  0  0  0
 49 51  2  0  0  0  0
 49 52  1  0  0  0  0
 52 53  1  0  0  0  0
 52 54  1  0  0  0  0
 52 55  1  0  0  0  0
M  END
$$$$
