p38a_2y
 OpenBabel02232411163D
Structure written by MMmdl.
 45 47  0  0  0  0  0  0  0  0999 V2000
   38.2370   36.5250   17.1470 C   0  0  0  0  0  0  0  0  0  0  0  0
   34.6660   35.1140   21.2090 C   0  0  0  0  0  0  0  0  0  0  0  0
   37.4100   36.0760   18.1730 C   0  0  0  0  0  0  0  0  0  0  0  0
   34.3860   39.1610   23.8370 C   0  0  0  0  0  0  0  0  0  0  0  0
   34.4870   39.0440   26.3180 C   0  0  0  0  0  0  0  0  0  0  0  0
   34.7020   37.9910   21.3650 C   0  0  0  0  0  0  0  0  0  0  0  0
   34.9560   37.3490   20.1050 C   0  0  0  0  0  0  0  0  0  0  0  0
   37.6300   36.7190   15.8980 C   0  0  0  0  0  0  0  0  0  0  0  0
   36.2810   36.4600   15.6480 C   0  0  0  0  0  0  0  0  0  0  0  0
   35.4730   35.9990   16.6930 C   0  0  0  0  0  0  0  0  0  0  0  0
   34.5740   37.2040   22.5490 C   0  0  0  0  0  0  0  0  0  0  0  0
   34.5980   39.4000   21.5130 C   0  0  0  0  0  0  0  0  0  0  0  0
   34.9830   35.9970   20.0570 C   0  0  0  0  0  0  0  0  0  0  0  0
   36.0420   35.8020   17.9540 C   0  0  0  0  0  0  0  0  0  0  0  0
   34.4270   35.0060   23.7210 C   0  0  0  0  0  0  0  0  0  0  0  0
   37.9050   35.9030   19.3920 F   0  0  0  0  0  0  0  0  0  0  0  0
   35.2580   35.2000   18.9460 O   0  0  0  0  0  0  0  0  0  0  0  0
   34.4370   39.9980   22.7040 N   0  0  0  0  0  0  0  0  0  0  0  0
   34.4950   33.9160   21.1580 O   0  0  0  0  0  0  0  0  0  0  0  0
   34.5630   35.8030   22.4700 N   0  0  0  0  0  0  0  0  0  0  0  0
   34.4500   37.7830   23.7880 N   0  0  0  0  0  0  0  0  0  0  0  0
   34.1960   39.7710   25.0570 N   0  0  0  0  0  0  0  0  0  0  0  0
   39.2940   36.7520   17.3140 H   0  0  0  0  0  0  0  0  0  0  0  0
   35.5870   38.8290   26.3890 H   0  0  0  0  0  0  0  0  0  0  0  0
   35.1390   37.9770   19.2300 H   0  0  0  0  0  0  0  0  0  0  0  0
   35.8440   36.6310   14.6630 H   0  0  0  0  0  0  0  0  0  0  0  0
   34.4090   35.8100   16.5180 H   0  0  0  0  0  0  0  0  0  0  0  0
   34.6490   40.0540   20.6250 H   0  0  0  0  0  0  0  0  0  0  0  0
   35.2300   35.2960   24.4520 H   0  0  0  0  0  0  0  0  0  0  0  0
   33.4290   35.2050   24.1980 H   0  0  0  0  0  0  0  0  0  0  0  0
   34.5140   33.9110   23.4960 H   0  0  0  0  0  0  0  0  0  0  0  0
   34.1940   40.8040   25.1110 H   0  0  0  0  0  0  0  0  0  0  0  0
   38.3700   37.2150   14.9100 F   0  0  0  0  0  0  0  0  0  0  0  0
   34.0380   39.8530   27.5770 C   0  0  0  0  0  0  0  0  0  0  0  0
   33.9320   38.0620   26.3110 H   0  0  0  0  0  0  0  0  0  0  0  0
   34.5430   39.1430   28.8350 C   0  0  0  0  0  0  0  0  0  0  0  0
   34.7230   41.1300   27.5960 O   0  0  0  0  0  0  0  0  0  0  0  0
   32.5240   40.0780   27.5950 C   0  0  0  0  0  0  0  0  0  0  0  0
   34.3100   41.7320   26.9030 H   0  0  0  0  0  0  0  0  0  0  0  0
   34.1790   39.6630   29.7520 H   0  0  0  0  0  0  0  0  0  0  0  0
   34.1710   38.0910   28.8620 H   0  0  0  0  0  0  0  0  0  0  0  0
   35.6580   39.1270   28.8630 H   0  0  0  0  0  0  0  0  0  0  0  0
   32.2410   40.6760   28.4890 H   0  0  0  0  0  0  0  0  0  0  0  0
   32.1920   40.6170   26.6810 H   0  0  0  0  0  0  0  0  0  0  0  0
   31.9880   39.1020   27.6400 H   0  0  0  0  0  0  0  0  0  0  0  0
  1  3  2  0  0  0  0
  1  8  1  0  0  0  0
  1 23  1  0  0  0  0
  2 13  1  0  0  0  0
  2 19  2  0  0  0  0
  2 20  1  0  0  0  0
  3 14  1  0  0  0  0
  3 16  1  0  0  0  0
  4 18  2  0  0  0  0
  4 21  1  0  0  0  0
  4 22  1  0  0  0  0
  5 22  1  0  0  0  0
  5 24  1  0  0  0  0
  5 34  1  0  0  0  0
  5 35  1  0  0  0  0
  6  7  1  0  0  0  0
  6 11  1  0  0  0  0
  6 12  2  0  0  0  0
  7 13  2  0  0  0  0
  7 25  1  0  0  0  0
  8  9  2  0  0  0  0
  8 33  1  0  0  0  0
  9 10  1  0  0  0  0
  9 26  1  0  0  0  0
 10 14  2  0  0  0  0
 10 27  1  0  0  0  0
 11 20  1  0  0  0  0
 11 21  2  0  0  0  0
 12 18  1  0  0  0  0
 12 28  1  0  0  0  0
 13 17  1  0  0  0  0
 14 17  1  0  0  0  0
 15 20  1  0  0  0  0
 15 29  1  0  0  0  0
 15 30  1  0  0  0  0
 15 31  1  0  0  0  0
 22 32  1  0  0  0  0
 34 36  1  0  0  0  0
 34 37  1  0  0  0  0
 34 38  1  0  0  0  0
 36 40  1  0  0  0  0
 36 41  1  0  0  0  0
 36 42  1  0  0  0  0
 37 39  1  0  0  0  0
 38 43  1  0  0  0  0
 38 44  1  0  0  0  0
 38 45  1  0  0  0  0
M  END
$$$$
