18630-1
 OpenBabel02232411163D
Structure written by MMmdl.
 41 42  0  0  0  0  0  0  0  0999 V2000
   23.1770   10.9180   29.0640 C   0  0  0  0  0  0  0  0  0  0  0  0
   23.4550   11.1180   30.5380 C   0  0  0  0  0  0  0  0  0  0  0  0
   22.1900   11.1780   31.3010 O   0  0  0  0  0  0  0  0  0  0  0  0
   21.5520   10.0330   31.6290 C   0  0  0  0  0  0  0  0  0  0  0  0
   22.0270    8.8470   31.1860 N   0  0  0  0  0  0  0  0  0  0  0  0
   21.2970    7.7080   31.4920 C   0  0  0  0  0  0  0  0  0  0  0  0
   20.1400    7.7410   32.2640 C   0  0  0  0  0  0  0  0  0  0  0  0
   19.6570    8.9900   32.7400 C   0  0  0  0  0  0  0  0  0  0  0  0
   18.5040    9.0340   33.4820 N   0  0  0  0  0  0  0  0  0  0  0  0
   20.3720   10.1880   32.4170 C   0  0  0  0  0  0  0  0  0  0  0  0
   19.9680   11.4850   32.7970 C   0  0  0  0  0  0  0  0  0  0  0  0
   19.6880   12.5780   33.0680 N   0  0  0  0  0  0  0  0  0  0  0  0
   21.8680    6.5540   30.9040 N   0  0  0  0  0  0  0  0  0  0  0  0
   21.3070    5.2520   30.8550 C   0  0  0  0  0  0  0  0  0  0  0  0
   20.2620    4.9770   31.4050 O   0  0  0  0  0  0  0  0  0  0  0  0
   22.1100    4.2830   30.0010 C   0  0  0  0  0  0  0  0  0  0  0  0
   23.4190    3.9070   30.6410 C   0  0  0  0  0  0  0  0  0  0  0  0
   23.4980    2.7970   31.4970 C   0  0  0  0  0  0  0  0  0  0  0  0
   24.7040    2.4690   32.1160 C   0  0  0  0  0  0  0  0  0  0  0  0
   25.8600    3.2330   31.8820 C   0  0  0  0  0  0  0  0  0  0  0  0
   27.1470    2.8710   32.5470 C   0  0  0  0  0  0  0  0  0  0  0  0
   25.7850    4.3230   31.0020 C   0  0  0  0  0  0  0  0  0  0  0  0
   24.5780    4.6550   30.3840 C   0  0  0  0  0  0  0  0  0  0  0  0
   22.8110    9.8850   28.8550 H   0  0  0  0  0  0  0  0  0  0  0  0
   22.4240   11.6470   28.6900 H   0  0  0  0  0  0  0  0  0  0  0  0
   24.1230   11.0710   28.4870 H   0  0  0  0  0  0  0  0  0  0  0  0
   23.8430   12.1420   30.7600 H   0  0  0  0  0  0  0  0  0  0  0  0
   24.1070   10.3200   30.9590 H   0  0  0  0  0  0  0  0  0  0  0  0
   19.5860    6.8290   32.4930 H   0  0  0  0  0  0  0  0  0  0  0  0
   18.0090    8.1650   33.7570 H   0  0  0  0  0  0  0  0  0  0  0  0
   18.1100    9.9200   33.7990 H   0  0  0  0  0  0  0  0  0  0  0  0
   22.7690    6.7180   30.4130 H   0  0  0  0  0  0  0  0  0  0  0  0
   21.4930    3.3610   29.8370 H   0  0  0  0  0  0  0  0  0  0  0  0
   22.2980    4.7540   29.0010 H   0  0  0  0  0  0  0  0  0  0  0  0
   22.6200    2.1740   31.6810 H   0  0  0  0  0  0  0  0  0  0  0  0
   24.7500    1.6040   32.7860 H   0  0  0  0  0  0  0  0  0  0  0  0
   27.5380    1.9070   32.1310 H   0  0  0  0  0  0  0  0  0  0  0  0
   27.9300    3.6520   32.3930 H   0  0  0  0  0  0  0  0  0  0  0  0
   27.0040    2.7390   33.6480 H   0  0  0  0  0  0  0  0  0  0  0  0
   26.6760    4.9210   30.7890 H   0  0  0  0  0  0  0  0  0  0  0  0
   24.5600    5.5000   29.6910 H   0  0  0  0  0  0  0  0  0  0  0  0
  1  2  1  0  0  0  0
  1 24  1  0  0  0  0
  1 25  1  0  0  0  0
  1 26  1  0  0  0  0
  2  3  1  0  0  0  0
  2 27  1  0  0  0  0
  2 28  1  0  0  0  0
  3  4  1  0  0  0  0
  4 10  2  0  0  0  0
  4  5  1  0  0  0  0
  5  6  2  0  0  0  0
  6  7  1  0  0  0  0
  6 13  1  0  0  0  0
  7  8  2  0  0  0  0
  7 29  1  0  0  0  0
  8  9  1  0  0  0  0
  8 10  1  0  0  0  0
  9 30  1  0  0  0  0
  9 31  1  0  0  0  0
 10 11  1  0  0  0  0
 11 12  3  0  0  0  0
 13 14  1  0  0  0  0
 13 32  1  0  0  0  0
 14 15  2  0  0  0  0
 14 16  1  0  0  0  0
 16 17  1  0  0  0  0
 16 33  1  0  0  0  0
 16 34  1  0  0  0  0
 17 23  2  0  0  0  0
 17 18  1  0  0  0  0
 18 19  2  0  0  0  0
 18 35  1  0  0  0  0
 19 20  1  0  0  0  0
 19 36  1  0  0  0  0
 20 21  1  0  0  0  0
 20 22  2  0  0  0  0
 21 37  1  0  0  0  0
 21 38  1  0  0  0  0
 21 39  1  0  0  0  0
 22 23  1  0  0  0  0
 22 40  1  0  0  0  0
 23 41  1  0  0  0  0
M  END
$$$$
