p38a_2n
 OpenBabel02232411163D
Structure written by MMmdl.
 53 56  0  0  0  0  0  0  0  0999 V2000
   38.3060   36.5630   17.1220 C   0  0  0  0  0  0  0  0  0  0  0  0
   34.5640   35.0650   21.1840 C   0  0  0  0  0  0  0  0  0  0  0  0
   37.5280   36.0980   18.1790 C   0  0  0  0  0  0  0  0  0  0  0  0
   33.9590   39.1320   23.7380 C   0  0  0  0  0  0  0  0  0  0  0  0
   34.6500   37.9390   21.3500 C   0  0  0  0  0  0  0  0  0  0  0  0
   35.0640   37.2910   20.1360 C   0  0  0  0  0  0  0  0  0  0  0  0
   37.6550   36.7190   15.8910 C   0  0  0  0  0  0  0  0  0  0  0  0
   36.3080   36.4110   15.6870 C   0  0  0  0  0  0  0  0  0  0  0  0
   35.5510   35.9300   16.7610 C   0  0  0  0  0  0  0  0  0  0  0  0
   34.2680   37.1610   22.4830 C   0  0  0  0  0  0  0  0  0  0  0  0
   34.6180   39.3520   21.4980 C   0  0  0  0  0  0  0  0  0  0  0  0
   35.0560   35.9390   20.0860 C   0  0  0  0  0  0  0  0  0  0  0  0
   36.1680   35.7640   18.0040 C   0  0  0  0  0  0  0  0  0  0  0  0
   38.0630   35.9670   19.3860 F   0  0  0  0  0  0  0  0  0  0  0  0
   35.4570   35.1250   19.0280 O   0  0  0  0  0  0  0  0  0  0  0  0
   34.2910   39.9610   22.6480 N   0  0  0  0  0  0  0  0  0  0  0  0
   34.4520   33.8590   21.1240 O   0  0  0  0  0  0  0  0  0  0  0  0
   34.2280   35.7570   22.4010 N   0  0  0  0  0  0  0  0  0  0  0  0
   33.9470   37.7510   23.6790 N   0  0  0  0  0  0  0  0  0  0  0  0
   33.5620   39.7460   24.9050 N   0  0  0  0  0  0  0  0  0  0  0  0
   39.3580   36.8310   17.2560 H   0  0  0  0  0  0  0  0  0  0  0  0
   35.3820   37.9150   19.2990 H   0  0  0  0  0  0  0  0  0  0  0  0
   35.8340   36.5550   14.7140 H   0  0  0  0  0  0  0  0  0  0  0  0
   34.4890   35.7050   16.6230 H   0  0  0  0  0  0  0  0  0  0  0  0
   34.8660   39.9990   20.6400 H   0  0  0  0  0  0  0  0  0  0  0  0
   33.6770   40.7730   25.0060 H   0  0  0  0  0  0  0  0  0  0  0  0
   38.3460   37.2270   14.8740 F   0  0  0  0  0  0  0  0  0  0  0  0
   32.1700   39.0190   28.3860 C   0  0  0  0  0  0  0  0  0  0  0  0
   32.2890   39.6920   27.0130 C   0  0  0  0  0  0  0  0  0  0  0  0
   33.3860   38.9920   26.1830 C   0  0  0  0  0  0  0  0  0  0  0  0
   34.7140   38.9510   26.9730 C   0  0  0  0  0  0  0  0  0  0  0  0
   34.4810   38.3210   28.3510 C   0  0  0  0  0  0  0  0  0  0  0  0
   33.4360   39.0030   29.0830 O   0  0  0  0  0  0  0  0  0  0  0  0
   31.7950   37.9740   28.2850 H   0  0  0  0  0  0  0  0  0  0  0  0
   31.5280   39.6150   29.0740 H   0  0  0  0  0  0  0  0  0  0  0  0
   32.5440   40.7700   27.1460 H   0  0  0  0  0  0  0  0  0  0  0  0
   31.3130   39.6270   26.4760 H   0  0  0  0  0  0  0  0  0  0  0  0
   33.0530   37.9430   25.9460 H   0  0  0  0  0  0  0  0  0  0  0  0
   35.4680   38.3460   26.4150 H   0  0  0  0  0  0  0  0  0  0  0  0
   35.1130   39.9870   27.0910 H   0  0  0  0  0  0  0  0  0  0  0  0
   34.2100   37.2440   28.2570 H   0  0  0  0  0  0  0  0  0  0  0  0
   35.3650   38.4650   29.0150 H   0  0  0  0  0  0  0  0  0  0  0  0
   33.7190   34.9510   23.5620 C   0  0  0  0  0  0  0  0  0  0  0  0
   34.1130   33.9040   23.4580 H   0  0  0  0  0  0  0  0  0  0  0  0
   34.1130   35.4020   24.5140 H   0  0  0  0  0  0  0  0  0  0  0  0
   32.1830   34.9350   23.5920 C   0  0  0  0  0  0  0  0  0  0  0  0
   31.8020   35.9440   23.8930 H   0  0  0  0  0  0  0  0  0  0  0  0
   31.7710   34.7070   22.5780 H   0  0  0  0  0  0  0  0  0  0  0  0
   31.6320   33.8810   24.5620 C   0  0  0  0  0  0  0  0  0  0  0  0
   30.5200   33.9710   24.6230 H   0  0  0  0  0  0  0  0  0  0  0  0
   31.9370   32.8470   24.2760 H   0  0  0  0  0  0  0  0  0  0  0  0
   32.1730   34.0100   25.8890 O   0  0  0  0  0  0  0  0  0  0  0  0
   32.0330   34.9380   26.2130 H   0  0  0  0  0  0  0  0  0  0  0  0
  1  3  2  0  0  0  0
  1  7  1  0  0  0  0
  1 21  1  0  0  0  0
  2 12  1  0  0  0  0
  2 17  2  0  0  0  0
  2 18  1  0  0  0  0
  3 13  1  0  0  0  0
  3 14  1  0  0  0  0
  4 16  2  0  0  0  0
  4 19  1  0  0  0  0
  4 20  1  0  0  0  0
  5  6  1  0  0  0  0
  5 10  1  0  0  0  0
  5 11  2  0  0  0  0
  6 12  2  0  0  0  0
  6 22  1  0  0  0  0
  7  8  2  0  0  0  0
  7 27  1  0  0  0  0
  8  9  1  0  0  0  0
  8 23  1  0  0  0  0
  9 13  2  0  0  0  0
  9 24  1  0  0  0  0
 10 18  1  0  0  0  0
 10 19  2  0  0  0  0
 11 16  1  0  0  0  0
 11 25  1  0  0  0  0
 12 15  1  0  0  0  0
 13 15  1  0  0  0  0
 18 43  1  0  0  0  0
 20 26  1  0  0  0  0
 20 30  1  0  0  0  0
 28 29  1  0  0  0  0
 28 33  1  0  0  0  0
 28 34  1  0  0  0  0
 28 35  1  0  0  0  0
 29 30  1  0  0  0  0
 29 36  1  0  0  0  0
 29 37  1  0  0  0  0
 30 31  1  0  0  0  0
 30 38  1  0  0  0  0
 31 32  1  0  0  0  0
 31 39  1  0  0  0  0
 31 40  1  0  0  0  0
 32 33  1  0  0  0  0
 32 41  1  0  0  0  0
 32 42  1  0  0  0  0
 43 44  1  0  0  0  0
 43 45  1  0  0  0  0
 43 46  1  0  0  0  0
 46 47  1  0  0  0  0
 46 48  1  0  0  0  0
 46 49  1  0  0  0  0
 49 50  1  0  0  0  0
 49 51  1  0  0  0  0
 49 52  1  0  0  0  0
 52 53  1  0  0  0  0
M  END
$$$$
