43
 OpenBabel02232411163D
Structure written by MMmdl.
 44 47  0  0  0  0  0  0  0  0999 V2000
    3.5280  -48.3530    7.1420 O   0  0  0  0  0  0  0  0  0  0  0  0
    3.1480  -49.3460    6.5070 C   0  0  0  0  0  0  0  0  0  0  0  0
    3.8680  -50.2040    5.9600 O   0  5  0  0  0  0  0  0  0  0  0  0
    1.6330  -49.5900    6.3800 C   0  0  0  0  0  0  0  0  0  0  0  0
   -0.2850  -50.8300    6.5260 C   0  0  0  0  0  0  0  0  0  0  0  0
   -1.2560  -51.8200    6.7570 C   0  0  0  0  0  0  0  0  0  0  0  0
   -2.5680  -51.5180    6.4240 C   0  0  0  0  0  0  0  0  0  0  0  0
   -2.9130  -50.2630    5.8690 C   0  0  0  0  0  0  0  0  0  0  0  0
   -1.9600  -49.2800    5.6420 C   0  0  0  0  0  0  0  0  0  0  0  0
   -0.6200  -49.5410    5.9720 C   0  0  0  0  0  0  0  0  0  0  0  0
    0.6080  -48.7780    5.9040 C   0  0  0  0  0  0  0  0  0  0  0  0
    0.6880  -47.3730    5.4240 C   0  0  0  0  0  0  0  0  0  0  0  0
    0.7180  -46.3530    6.5770 C   0  0  0  0  0  0  0  0  0  0  0  0
   -0.5360  -46.3840    7.4440 C   0  0  0  0  0  0  0  0  0  0  0  0
   -1.5780  -45.7710    6.6000 O   0  0  0  0  0  0  0  0  0  0  0  0
   -2.8360  -45.6600    7.1100 C   0  0  0  0  0  0  0  0  0  0  0  0
   -4.5410  -46.0500    8.7810 C   0  0  0  0  0  0  0  0  0  0  0  0
   -3.2380  -46.1900    8.3790 C   0  0  0  0  0  0  0  0  0  0  0  0
   -0.9960  -52.7880    7.1860 H   0  0  0  0  0  0  0  0  0  0  0  0
   -3.3560  -52.2530    6.5930 H   0  0  0  0  0  0  0  0  0  0  0  0
   -3.9590  -50.0780    5.6190 H   0  0  0  0  0  0  0  0  0  0  0  0
   -2.2550  -48.3190    5.2170 H   0  0  0  0  0  0  0  0  0  0  0  0
   -0.2110  -47.1530    4.7920 H   0  0  0  0  0  0  0  0  0  0  0  0
    1.6030  -47.2200    4.8040 H   0  0  0  0  0  0  0  0  0  0  0  0
    1.5910  -46.5750    7.2400 H   0  0  0  0  0  0  0  0  0  0  0  0
    0.8190  -45.3280    6.1510 H   0  0  0  0  0  0  0  0  0  0  0  0
   -0.4390  -45.7390    8.3420 H   0  0  0  0  0  0  0  0  0  0  0  0
   -0.8680  -47.4190    7.6750 H   0  0  0  0  0  0  0  0  0  0  0  0
   -2.5380  -46.7150    9.0220 H   0  0  0  0  0  0  0  0  0  0  0  0
   -3.7360  -44.9930    6.2890 C   0  0  0  0  0  0  0  0  0  0  0  0
   -4.8730  -46.4550    9.7420 H   0  0  0  0  0  0  0  0  0  0  0  0
   -5.0890  -44.8630    6.6960 C   0  0  0  0  0  0  0  0  0  0  0  0
   -5.5030  -45.4020    7.9470 C   0  0  0  0  0  0  0  0  0  0  0  0
   -6.8860  -45.3770    8.3020 C   0  0  0  0  0  0  0  0  0  0  0  0
   -7.8180  -44.9070    7.4130 C   0  0  0  0  0  0  0  0  0  0  0  0
   -7.4050  -44.3400    6.1710 C   0  0  0  0  0  0  0  0  0  0  0  0
   -6.0790  -44.2890    5.8300 C   0  0  0  0  0  0  0  0  0  0  0  0
   -7.1910  -45.7680    9.2740 H   0  0  0  0  0  0  0  0  0  0  0  0
   -8.8820  -44.9790    7.6270 H   0  0  0  0  0  0  0  0  0  0  0  0
   -8.1750  -43.9630    5.5000 H   0  0  0  0  0  0  0  0  0  0  0  0
   -5.7610  -43.8440    4.8870 H   0  0  0  0  0  0  0  0  0  0  0  0
   -3.4270  -44.6020    5.3220 H   0  0  0  0  0  0  0  0  0  0  0  0
    1.0980  -50.8350    6.7650 N   0  0  0  0  0  0  0  0  0  0  0  0
    1.5970  -51.6320    7.1430 H   0  0  0  0  0  0  0  0  0  0  0  0
  1  2  2  0  0  0  0
  2  3  1  0  0  0  0
  2  4  1  0  0  0  0
  4 11  2  0  0  0  0
  4 43  1  0  0  0  0
  5  6  2  0  0  0  0
  5 10  1  0  0  0  0
  5 43  1  0  0  0  0
  6  7  1  0  0  0  0
  6 19  1  0  0  0  0
  7  8  2  0  0  0  0
  7 20  1  0  0  0  0
  8  9  1  0  0  0  0
  8 21  1  0  0  0  0
  9 10  2  0  0  0  0
  9 22  1  0  0  0  0
 10 11  1  0  0  0  0
 11 12  1  0  0  0  0
 12 23  1  0  0  0  0
 12 24  1  0  0  0  0
 12 13  1  0  0  0  0
 13 14  1  0  0  0  0
 13 25  1  0  0  0  0
 13 26  1  0  0  0  0
 14 15  1  0  0  0  0
 14 27  1  0  0  0  0
 14 28  1  0  0  0  0
 15 16  1  0  0  0  0
 16 18  2  0  0  0  0
 16 30  1  0  0  0  0
 17 18  1  0  0  0  0
 17 31  1  0  0  0  0
 17 33  2  0  0  0  0
 18 29  1  0  0  0  0
 30 32  2  0  0  0  0
 30 42  1  0  0  0  0
 32 33  1  0  0  0  0
 32 37  1  0  0  0  0
 33 34  1  0  0  0  0
 34 35  2  0  0  0  0
 34 38  1  0  0  0  0
 35 36  1  0  0  0  0
 35 39  1  0  0  0  0
 36 37  2  0  0  0  0
 36 40  1  0  0  0  0
 37 41  1  0  0  0  0
 43 44  1  0  0  0  0
M  CHG  1   3  -1
M  END
$$$$
