p38a_2u
 OpenBabel02232411163D
Structure written by MMmdl.
 64 68  0  0  0  0  0  0  0  0999 V2000
   38.2660   36.5060   17.2150 C   0  0  0  0  0  0  0  0  0  0  0  0
   34.5740   35.1020   21.3940 C   0  0  0  0  0  0  0  0  0  0  0  0
   37.5150   36.0720   18.3040 C   0  0  0  0  0  0  0  0  0  0  0  0
   34.0700   39.2080   23.8990 C   0  0  0  0  0  0  0  0  0  0  0  0
   34.7230   37.9740   21.5230 C   0  0  0  0  0  0  0  0  0  0  0  0
   35.1170   37.3060   20.3120 C   0  0  0  0  0  0  0  0  0  0  0  0
   37.5840   36.6290   15.9960 C   0  0  0  0  0  0  0  0  0  0  0  0
   36.2320   36.3160   15.8360 C   0  0  0  0  0  0  0  0  0  0  0  0
   35.5020   35.8720   16.9440 C   0  0  0  0  0  0  0  0  0  0  0  0
   34.3550   37.2130   22.6720 C   0  0  0  0  0  0  0  0  0  0  0  0
   34.6900   39.3890   21.6480 C   0  0  0  0  0  0  0  0  0  0  0  0
   35.0860   35.9550   20.2820 C   0  0  0  0  0  0  0  0  0  0  0  0
   36.1500   35.7390   18.1750 C   0  0  0  0  0  0  0  0  0  0  0  0
   38.0840   35.9680   19.4970 F   0  0  0  0  0  0  0  0  0  0  0  0
   35.4670   35.1230   19.2330 O   0  0  0  0  0  0  0  0  0  0  0  0
   34.3800   40.0200   22.7900 N   0  0  0  0  0  0  0  0  0  0  0  0
   34.4090   33.9050   21.3120 O   0  0  0  0  0  0  0  0  0  0  0  0
   34.2840   35.8040   22.6160 N   0  0  0  0  0  0  0  0  0  0  0  0
   34.0580   37.8290   23.8600 N   0  0  0  0  0  0  0  0  0  0  0  0
   33.6940   39.8350   25.0670 N   0  0  0  0  0  0  0  0  0  0  0  0
   39.3220   36.7750   17.3140 H   0  0  0  0  0  0  0  0  0  0  0  0
   35.4370   37.9170   19.4650 H   0  0  0  0  0  0  0  0  0  0  0  0
   35.7340   36.4280   14.8690 H   0  0  0  0  0  0  0  0  0  0  0  0
   34.4350   35.6490   16.8420 H   0  0  0  0  0  0  0  0  0  0  0  0
   34.9220   40.0190   20.7730 H   0  0  0  0  0  0  0  0  0  0  0  0
   33.8100   40.8630   25.1570 H   0  0  0  0  0  0  0  0  0  0  0  0
   38.2530   37.1040   14.9480 F   0  0  0  0  0  0  0  0  0  0  0  0
   32.4430   39.2140   28.6220 C   0  0  0  0  0  0  0  0  0  0  0  0
   32.5270   39.8620   27.2340 C   0  0  0  0  0  0  0  0  0  0  0  0
   33.5370   39.0920   26.3550 C   0  0  0  0  0  0  0  0  0  0  0  0
   34.8970   38.9610   27.0760 C   0  0  0  0  0  0  0  0  0  0  0  0
   34.6930   38.3680   28.4750 C   0  0  0  0  0  0  0  0  0  0  0  0
   33.7440   39.1410   29.2480 O   0  0  0  0  0  0  0  0  0  0  0  0
   32.0110   38.1880   28.5570 H   0  0  0  0  0  0  0  0  0  0  0  0
   31.8710   39.8540   29.3320 H   0  0  0  0  0  0  0  0  0  0  0  0
   32.8450   40.9260   27.3410 H   0  0  0  0  0  0  0  0  0  0  0  0
   31.5220   39.8400   26.7500 H   0  0  0  0  0  0  0  0  0  0  0  0
   33.1250   38.0660   26.1380 H   0  0  0  0  0  0  0  0  0  0  0  0
   35.5670   38.2880   26.4900 H   0  0  0  0  0  0  0  0  0  0  0  0
   35.3800   39.9640   27.1560 H   0  0  0  0  0  0  0  0  0  0  0  0
   34.3300   37.3160   28.4130 H   0  0  0  0  0  0  0  0  0  0  0  0
   35.6190   38.4470   29.0890 H   0  0  0  0  0  0  0  0  0  0  0  0
   33.8290   32.8360   25.0520 C   0  0  0  0  0  0  0  0  0  0  0  0
   34.6340   33.9100   24.2740 C   0  0  0  0  0  0  0  0  0  0  0  0
   33.7150   35.0600   23.8100 C   0  0  0  0  0  0  0  0  0  0  0  0
   32.2970   34.5570   23.4770 C   0  0  0  0  0  0  0  0  0  0  0  0
   31.6320   34.0390   24.7700 C   0  0  0  0  0  0  0  0  0  0  0  0
   34.4920   32.4050   25.8470 H   0  0  0  0  0  0  0  0  0  0  0  0
   33.5120   32.0270   24.3420 H   0  0  0  0  0  0  0  0  0  0  0  0
   35.1300   33.4110   23.4110 H   0  0  0  0  0  0  0  0  0  0  0  0
   35.4190   34.3430   24.9400 H   0  0  0  0  0  0  0  0  0  0  0  0
   33.6300   35.7910   24.6700 H   0  0  0  0  0  0  0  0  0  0  0  0
   31.6730   35.3910   23.0780 H   0  0  0  0  0  0  0  0  0  0  0  0
   32.3370   33.7460   22.7130 H   0  0  0  0  0  0  0  0  0  0  0  0
   31.1660   34.9150   25.3040 H   0  0  0  0  0  0  0  0  0  0  0  0
   30.8320   33.3050   24.4900 H   0  0  0  0  0  0  0  0  0  0  0  0
   32.6330   33.4390   25.7010 N   0  0  0  0  0  0  0  0  0  0  0  0
   32.0930   32.9650   27.2530 S   0  0  0  0  0  0  0  0  0  0  0  0
   33.1550   32.1390   27.8600 O   0  0  0  0  0  0  0  0  0  0  0  0
   30.8250   32.2160   27.1390 O   0  0  0  0  0  0  0  0  0  0  0  0
   31.8740   34.4610   28.0890 C   0  0  0  0  0  0  0  0  0  0  0  0
   32.6780   35.2060   27.8390 H   0  0  0  0  0  0  0  0  0  0  0  0
   30.9010   34.9680   27.8410 H   0  0  0  0  0  0  0  0  0  0  0  0
   31.8860   34.3400   29.2030 H   0  0  0  0  0  0  0  0  0  0  0  0
  1  3  2  0  0  0  0
  1  7  1  0  0  0  0
  1 21  1  0  0  0  0
  2 12  1  0  0  0  0
  2 17  2  0  0  0  0
  2 18  1  0  0  0  0
  3 13  1  0  0  0  0
  3 14  1  0  0  0  0
  4 16  2  0  0  0  0
  4 19  1  0  0  0  0
  4 20  1  0  0  0  0
  5  6  1  0  0  0  0
  5 10  1  0  0  0  0
  5 11  2  0  0  0  0
  6 12  2  0  0  0  0
  6 22  1  0  0  0  0
  7  8  2  0  0  0  0
  7 27  1  0  0  0  0
  8  9  1  0  0  0  0
  8 23  1  0  0  0  0
  9 13  2  0  0  0  0
  9 24  1  0  0  0  0
 10 18  1  0  0  0  0
 10 19  2  0  0  0  0
 11 16  1  0  0  0  0
 11 25  1  0  0  0  0
 12 15  1  0  0  0  0
 13 15  1  0  0  0  0
 18 45  1  0  0  0  0
 20 26  1  0  0  0  0
 20 30  1  0  0  0  0
 28 29  1  0  0  0  0
 28 33  1  0  0  0  0
 28 34  1  0  0  0  0
 28 35  1  0  0  0  0
 29 30  1  0  0  0  0
 29 36  1  0  0  0  0
 29 37  1  0  0  0  0
 30 31  1  0  0  0  0
 30 38  1  0  0  0  0
 31 32  1  0  0  0  0
 31 39  1  0  0  0  0
 31 40  1  0  0  0  0
 32 33  1  0  0  0  0
 32 41  1  0  0  0  0
 32 42  1  0  0  0  0
 43 44  1  0  0  0  0
 43 48  1  0  0  0  0
 43 49  1  0  0  0  0
 43 57  1  0  0  0  0
 44 45  1  0  0  0  0
 44 50  1  0  0  0  0
 44 51  1  0  0  0  0
 45 46  1  0  0  0  0
 45 52  1  0  0  0  0
 46 47  1  0  0  0  0
 46 53  1  0  0  0  0
 46 54  1  0  0  0  0
 47 55  1  0  0  0  0
 47 56  1  0  0  0  0
 47 57  1  0  0  0  0
 57 58  1  0  0  0  0
 58 59  2  0  0  0  0
 58 60  2  0  0  0  0
 58 61  1  0  0  0  0
 61 62  1  0  0  0  0
 61 63  1  0  0  0  0
 61 64  1  0  0  0  0
M  END
$$$$
