p38a_3fmh
 OpenBabel02232411163D
Structure written by MMmdl.
 46 49  0  0  1  0  0  0  0  0999 V2000
   38.4300   37.3630   14.7880 F   0  0  0  0  0  0  0  0  0  0  0  0
   37.7390   36.7940   15.7710 C   0  0  0  0  0  0  0  0  0  0  0  0
   36.4060   36.4570   15.5270 C   0  0  0  0  0  0  0  0  0  0  0  0
   35.6490   35.8920   16.5580 C   0  0  0  0  0  0  0  0  0  0  0  0
   38.3720   36.6070   17.0070 C   0  0  0  0  0  0  0  0  0  0  0  0
   37.5890   36.0730   18.0260 C   0  0  0  0  0  0  0  0  0  0  0  0
   38.0920   35.9310   19.2460 F   0  0  0  0  0  0  0  0  0  0  0  0
   36.2510   35.6870   17.8010 C   0  0  0  0  0  0  0  0  0  0  0  0
   35.5540   34.9760   18.7870 O   0  0  0  0  0  0  0  0  0  0  0  0
   35.0140   35.7520   19.8110 C   0  0  0  0  0  0  0  0  0  0  0  0
   34.3210   34.8420   20.7610 C   0  0  0  0  0  0  0  0  0  0  0  0
   34.2840   33.6350   20.6770 O   0  0  0  0  0  0  0  0  0  0  0  0
   33.6550   35.5150   21.8470 N   0  0  0  0  0  0  0  0  0  0  0  0
   32.7880   34.6860   22.7290 C   0  0  0  0  0  0  0  0  0  0  0  0
   33.8210   36.8900   22.0780 C   0  0  0  0  0  0  0  0  0  0  0  0
   33.3420   37.4270   23.2490 N   0  0  0  0  0  0  0  0  0  0  0  0
   35.0820   37.0950   19.9500 C   0  0  0  0  0  0  0  0  0  0  0  0
   34.5060   37.6980   21.1200 C   0  0  0  0  0  0  0  0  0  0  0  0
   34.6110   39.0860   21.3950 C   0  0  0  0  0  0  0  0  0  0  0  0
   34.1610   39.6370   22.5340 N   0  0  0  0  0  0  0  0  0  0  0  0
   33.5480   38.7750   23.4600 C   0  0  0  0  0  0  0  0  0  0  0  0
   33.1210   39.3430   24.6420 N   0  0  0  0  0  0  0  0  0  0  0  0
   32.5440   38.5660   25.7690 C   0  0  2  0  0  0  0  0  0  0  0  0
   31.5940   39.4860   26.5410 C   0  0  0  0  0  0  0  0  0  0  0  0
   33.6650   38.0510   26.7260 C   0  0  0  0  0  0  0  0  0  0  0  0
   34.2830   36.8050   26.2300 N   0  0  0  0  0  0  0  0  0  0  0  0
   33.6970   35.5850   26.3970 N   0  0  0  0  0  0  0  0  0  0  0  0
   34.4860   34.7330   25.6860 C   0  0  0  0  0  0  0  0  0  0  0  0
   35.5400   35.4730   25.0840 N   0  0  0  0  0  0  0  0  0  0  0  0
   35.3900   36.7140   25.4210 N   0  0  0  0  0  0  0  0  0  0  0  0
   35.9430   36.6450   14.5570 H   0  0  0  0  0  0  0  0  0  0  0  0
   34.5990   35.6350   16.3850 H   0  0  0  0  0  0  0  0  0  0  0  0
   39.4100   36.9060   17.1750 H   0  0  0  0  0  0  0  0  0  0  0  0
   32.2560   35.3150   23.4930 H   0  0  0  0  0  0  0  0  0  0  0  0
   32.0080   34.1750   22.1020 H   0  0  0  0  0  0  0  0  0  0  0  0
   33.3990   33.9090   23.2590 H   0  0  0  0  0  0  0  0  0  0  0  0
   35.5670   37.7470   19.2210 H   0  0  0  0  0  0  0  0  0  0  0  0
   35.0790   39.7680   20.6640 H   0  0  0  0  0  0  0  0  0  0  0  0
   33.3430   40.3380   24.8510 H   0  0  0  0  0  0  0  0  0  0  0  0
   31.9550   37.6900   25.3720 H   0  0  0  0  0  0  0  0  0  0  0  0
   31.0170   38.8950   27.2910 H   0  0  0  0  0  0  0  0  0  0  0  0
   32.1520   40.2920   27.0720 H   0  0  0  0  0  0  0  0  0  0  0  0
   30.8810   39.9520   25.8240 H   0  0  0  0  0  0  0  0  0  0  0  0
   34.4550   38.8410   26.8620 H   0  0  0  0  0  0  0  0  0  0  0  0
   33.2040   37.8510   27.7390 H   0  0  0  0  0  0  0  0  0  0  0  0
   34.3470   33.6570   25.6040 H   0  0  0  0  0  0  0  0  0  0  0  0
  1  2  1  0  0  0  0
  2  3  2  0  0  0  0
  2  5  1  0  0  0  0
  3  4  1  0  0  0  0
  3 31  1  0  0  0  0
  4  8  2  0  0  0  0
  4 32  1  0  0  0  0
  5  6  2  0  0  0  0
  5 33  1  0  0  0  0
  6  7  1  0  0  0  0
  6  8  1  0  0  0  0
  8  9  1  0  0  0  0
  9 10  1  0  0  0  0
 10 11  1  0  0  0  0
 10 17  2  0  0  0  0
 11 12  2  0  0  0  0
 11 13  1  0  0  0  0
 13 14  1  0  0  0  0
 13 15  1  0  0  0  0
 14 34  1  0  0  0  0
 14 35  1  0  0  0  0
 14 36  1  0  0  0  0
 15 16  2  0  0  0  0
 15 18  1  0  0  0  0
 16 21  1  0  0  0  0
 17 18  1  0  0  0  0
 17 37  1  0  0  0  0
 18 19  2  0  0  0  0
 19 20  1  0  0  0  0
 19 38  1  0  0  0  0
 20 21  2  0  0  0  0
 21 22  1  0  0  0  0
 22 23  1  0  0  0  0
 22 39  1  0  0  0  0
 23 24  1  0  0  0  0
 23 25  1  0  0  0  0
 23 40  1  6  0  0  0
 24 41  1  0  0  0  0
 24 42  1  0  0  0  0
 24 43  1  0  0  0  0
 25 26  1  0  0  0  0
 25 44  1  0  0  0  0
 25 45  1  0  0  0  0
 26 27  1  0  0  0  0
 26 30  1  0  0  0  0
 27 28  2  0  0  0  0
 28 29  1  0  0  0  0
 28 46  1  0  0  0  0
 29 30  2  0  0  0  0
M  END
$$$$
