62
                    3D
 Schrodinger Suite 2022-3.
 43 46  0  0  1  0  0  0  0  0999 V2000
    3.2370  -47.8570    7.2620 O   0  0  0  0  0  0  0  0  0  0  0  0
    3.0280  -48.9600    6.7410 C   0  0  0  0  0  0  0  0  0  0  0  0
    3.8770  -49.7610    6.3060 O   0  5  0  0  0  0  0  0  0  0  0  0
    1.5820  -49.4670    6.6680 C   0  0  0  0  0  0  0  0  0  0  0  0
    1.3780  -51.1310    7.1730 S   0  0  0  0  0  0  0  0  0  0  0  0
   -0.3380  -51.0950    6.8980 C   0  0  0  0  0  0  0  0  0  0  0  0
   -1.2250  -52.1530    7.0900 C   0  0  0  0  0  0  0  0  0  0  0  0
   -2.5740  -51.9480    6.8080 C   0  0  0  0  0  0  0  0  0  0  0  0
   -3.0170  -50.6900    6.3670 C   0  0  0  0  0  0  0  0  0  0  0  0
   -2.1100  -49.6460    6.2040 C   0  0  0  0  0  0  0  0  0  0  0  0
   -0.7320  -49.8080    6.4310 C   0  0  0  0  0  0  0  0  0  0  0  0
    0.4090  -48.8910    6.2920 C   0  0  0  0  0  0  0  0  0  0  0  0
    0.3150  -47.4970    5.7490 C   0  0  0  0  0  0  0  0  0  0  0  0
    0.2590  -46.4120    6.8380 C   0  0  0  0  0  0  0  0  0  0  0  0
   -0.9080  -46.5120    7.8120 C   0  0  0  0  0  0  0  0  0  0  0  0
   -2.0320  -45.8190    7.1460 O   0  0  0  0  0  0  0  0  0  0  0  0
   -3.2530  -45.8620    7.7480 C   0  0  0  0  0  0  0  0  0  0  0  0
   -5.8440  -45.6810    8.8280 C   0  0  0  0  0  0  0  0  0  0  0  0
   -4.8760  -46.4340    9.4460 C   0  0  0  0  0  0  0  0  0  0  0  0
   -3.5610  -46.5260    8.9230 C   0  0  0  0  0  0  0  0  0  0  0  0
   -0.8900  -53.1270    7.4540 H   0  0  0  0  0  0  0  0  0  0  0  0
   -3.2930  -52.7580    6.9400 H   0  0  0  0  0  0  0  0  0  0  0  0
   -4.0790  -50.5380    6.1600 H   0  0  0  0  0  0  0  0  0  0  0  0
   -2.7700  -48.1190    5.7530 Cl  0  0  0  0  0  0  0  0  0  0  0  0
   -0.5640  -47.3890    5.0700 H   0  0  0  0  0  0  0  0  0  0  0  0
    1.2270  -47.2890    5.1270 H   0  0  0  0  0  0  0  0  0  0  0  0
    0.2030  -45.4120    6.3410 H   0  0  0  0  0  0  0  0  0  0  0  0
    1.2040  -46.4760    7.4400 H   0  0  0  0  0  0  0  0  0  0  0  0
   -0.7210  -45.9250    8.7370 H   0  0  0  0  0  0  0  0  0  0  0  0
   -1.2190  -47.5580    8.0070 H   0  0  0  0  0  0  0  0  0  0  0  0
   -2.8480  -47.1350    9.4670 H   0  0  0  0  0  0  0  0  0  0  0  0
   -5.5590  -45.0170    7.5960 C   0  0  0  0  0  0  0  0  0  0  0  0
   -4.2580  -45.1040    7.0330 C   0  0  0  0  0  0  0  0  0  0  0  0
   -3.9950  -44.4920    5.7740 C   0  0  0  0  0  0  0  0  0  0  0  0
   -4.9850  -43.8070    5.1090 C   0  0  0  0  0  0  0  0  0  0  0  0
   -6.2900  -43.7230    5.6660 C   0  0  0  0  0  0  0  0  0  0  0  0
   -6.5720  -44.3060    6.8780 C   0  0  0  0  0  0  0  0  0  0  0  0
   -3.0040  -44.6010    5.3310 H   0  0  0  0  0  0  0  0  0  0  0  0
   -4.7890  -43.3320    4.1500 H   0  0  0  0  0  0  0  0  0  0  0  0
   -7.0650  -43.1950    5.1130 H   0  0  0  0  0  0  0  0  0  0  0  0
   -7.5750  -44.2540    7.3000 H   0  0  0  0  0  0  0  0  0  0  0  0
   -5.1130  -46.9850   10.3580 H   0  0  0  0  0  0  0  0  0  0  0  0
   -6.8450  -45.6020    9.2500 H   0  0  0  0  0  0  0  0  0  0  0  0
  1  2  2  0  0  0  0
  2  3  1  0  0  0  0
  2  4  1  0  0  0  0
  4  5  1  0  0  0  0
  4 12  2  0  0  0  0
  5  6  1  0  0  0  0
  6  7  1  0  0  0  0
  6 11  2  0  0  0  0
  7  8  2  0  0  0  0
  7 21  1  0  0  0  0
  8  9  1  0  0  0  0
  8 22  1  0  0  0  0
  9 10  2  0  0  0  0
  9 23  1  0  0  0  0
 10 11  1  0  0  0  0
 10 24  1  0  0  0  0
 11 12  1  0  0  0  0
 12 13  1  0  0  0  0
 13 25  1  0  0  0  0
 13 26  1  0  0  0  0
 13 14  1  0  0  0  0
 14 15  1  0  0  0  0
 14 27  1  0  0  0  0
 14 28  1  0  0  0  0
 15 16  1  0  0  0  0
 15 29  1  0  0  0  0
 15 30  1  0  0  0  0
 16 17  1  0  0  0  0
 17 20  2  0  0  0  0
 17 33  1  0  0  0  0
 18 19  2  0  0  0  0
 18 32  1  0  0  0  0
 18 43  1  0  0  0  0
 19 20  1  0  0  0  0
 19 42  1  0  0  0  0
 20 31  1  0  0  0  0
 32 33  2  0  0  0  0
 32 37  1  0  0  0  0
 33 34  1  0  0  0  0
 34 35  2  0  0  0  0
 34 38  1  0  0  0  0
 35 36  1  0  0  0  0
 35 39  1  0  0  0  0
 36 37  2  0  0  0  0
 36 40  1  0  0  0  0
 37 41  1  0  0  0  0
M  CHG  1   3  -1
M  END
$$$$
