48
 OpenBabel02232411163D
Structure written by MMmdl.
 42 45  0  0  0  0  0  0  0  0999 V2000
    3.6790  -49.8950    5.9370 O   0  0  0  0  0  0  0  0  0  0  0  0
    2.9350  -49.0520    6.4760 C   0  0  0  0  0  0  0  0  0  0  0  0
    3.2900  -48.0280    7.0760 O   0  5  0  0  0  0  0  0  0  0  0  0
    1.4310  -49.3780    6.3880 C   0  0  0  0  0  0  0  0  0  0  0  0
   -0.3910  -50.7580    6.5500 C   0  0  0  0  0  0  0  0  0  0  0  0
   -1.2860  -51.8190    6.7760 C   0  0  0  0  0  0  0  0  0  0  0  0
   -2.6220  -51.6040    6.4740 C   0  0  0  0  0  0  0  0  0  0  0  0
   -3.0690  -50.3650    5.9560 C   0  0  0  0  0  0  0  0  0  0  0  0
   -2.1910  -49.3130    5.7340 C   0  0  0  0  0  0  0  0  0  0  0  0
   -0.8300  -49.4850    6.0340 C   0  0  0  0  0  0  0  0  0  0  0  0
    0.3390  -48.6330    5.9560 C   0  0  0  0  0  0  0  0  0  0  0  0
    0.2880  -47.2230    5.4870 C   0  0  0  0  0  0  0  0  0  0  0  0
    0.2360  -46.2000    6.6360 C   0  0  0  0  0  0  0  0  0  0  0  0
   -0.9500  -46.3580    7.5820 C   0  0  0  0  0  0  0  0  0  0  0  0
   -2.1140  -45.7800    6.8750 O   0  0  0  0  0  0  0  0  0  0  0  0
   -3.3030  -45.7690    7.5370 C   0  0  0  0  0  0  0  0  0  0  0  0
   -5.8870  -45.5940    8.7690 C   0  0  0  0  0  0  0  0  0  0  0  0
   -4.8610  -46.3330    9.3280 C   0  0  0  0  0  0  0  0  0  0  0  0
   -3.5800  -46.4240    8.7390 C   0  0  0  0  0  0  0  0  0  0  0  0
   -0.9490  -52.7750    7.1760 H   0  0  0  0  0  0  0  0  0  0  0  0
   -3.3520  -52.3980    6.6390 H   0  0  0  0  0  0  0  0  0  0  0  0
   -4.1290  -50.2450    5.7300 H   0  0  0  0  0  0  0  0  0  0  0  0
   -2.5620  -48.3670    5.3370 H   0  0  0  0  0  0  0  0  0  0  0  0
   -0.6280  -47.0880    4.8570 H   0  0  0  0  0  0  0  0  0  0  0  0
    1.1840  -46.9880    4.8620 H   0  0  0  0  0  0  0  0  0  0  0  0
    1.1620  -46.3080    7.2560 H   0  0  0  0  0  0  0  0  0  0  0  0
    0.2010  -45.1730    6.2040 H   0  0  0  0  0  0  0  0  0  0  0  0
   -0.8190  -45.7400    8.4960 H   0  0  0  0  0  0  0  0  0  0  0  0
   -1.1910  -47.4210    7.7910 H   0  0  0  0  0  0  0  0  0  0  0  0
   -2.8400  -47.0310    9.2500 H   0  0  0  0  0  0  0  0  0  0  0  0
   -5.0460  -46.8760   10.2590 H   0  0  0  0  0  0  0  0  0  0  0  0
   -6.8650  -45.5200    9.2310 H   0  0  0  0  0  0  0  0  0  0  0  0
    0.9930  -50.6660    6.7600 N   0  0  0  0  0  0  0  0  0  0  0  0
    1.5600  -51.4370    7.0950 H   0  0  0  0  0  0  0  0  0  0  0  0
   -5.7180  -43.7850    5.5770 C   0  0  0  0  0  0  0  0  0  0  0  0
   -6.4520  -44.1840    6.7270 N   0  0  0  0  0  0  0  0  0  0  0  0
   -5.6110  -44.9490    7.5430 C   0  0  0  0  0  0  0  0  0  0  0  0
   -4.3290  -45.0150    6.9020 C   0  0  0  0  0  0  0  0  0  0  0  0
   -4.4300  -44.2740    5.6730 C   0  0  0  0  0  0  0  0  0  0  0  0
   -7.4300  -44.0060    6.8760 H   0  0  0  0  0  0  0  0  0  0  0  0
   -3.6440  -44.1370    4.9560 H   0  0  0  0  0  0  0  0  0  0  0  0
   -6.1790  -43.1920    4.8090 H   0  0  0  0  0  0  0  0  0  0  0  0
  1  2  2  0  0  0  0
  2  3  1  0  0  0  0
  2  4  1  0  0  0  0
  4 11  2  0  0  0  0
  4 33  1  0  0  0  0
  5  6  2  0  0  0  0
  5 10  1  0  0  0  0
  5 33  1  0  0  0  0
  6  7  1  0  0  0  0
  6 20  1  0  0  0  0
  7  8  2  0  0  0  0
  7 21  1  0  0  0  0
  8  9  1  0  0  0  0
  8 22  1  0  0  0  0
  9 10  2  0  0  0  0
  9 23  1  0  0  0  0
 10 11  1  0  0  0  0
 11 12  1  0  0  0  0
 12 24  1  0  0  0  0
 12 25  1  0  0  0  0
 12 13  1  0  0  0  0
 13 14  1  0  0  0  0
 13 26  1  0  0  0  0
 13 27  1  0  0  0  0
 14 15  1  0  0  0  0
 14 28  1  0  0  0  0
 14 29  1  0  0  0  0
 15 16  1  0  0  0  0
 16 19  2  0  0  0  0
 16 38  1  0  0  0  0
 17 18  2  0  0  0  0
 17 32  1  0  0  0  0
 17 37  1  0  0  0  0
 18 19  1  0  0  0  0
 18 31  1  0  0  0  0
 19 30  1  0  0  0  0
 33 34  1  0  0  0  0
 35 36  1  0  0  0  0
 35 39  2  0  0  0  0
 35 42  1  0  0  0  0
 36 37  1  0  0  0  0
 36 40  1  0  0  0  0
 37 38  2  0  0  0  0
 38 39  1  0  0  0  0
 39 41  1  0  0  0  0
M  CHG  1   3  -1
M  END
$$$$
