p38a_2m
 OpenBabel02232411163D
Structure written by MMmdl.
 50 54  0  0  0  0  0  0  0  0999 V2000
   38.2820   36.5570   17.1280 C   0  0  0  0  0  0  0  0  0  0  0  0
   34.5370   35.0640   21.1430 C   0  0  0  0  0  0  0  0  0  0  0  0
   37.4790   36.0940   18.1660 C   0  0  0  0  0  0  0  0  0  0  0  0
   33.9710   39.1090   23.7470 C   0  0  0  0  0  0  0  0  0  0  0  0
   34.6150   37.9460   21.3320 C   0  0  0  0  0  0  0  0  0  0  0  0
   35.0060   37.3080   20.1040 C   0  0  0  0  0  0  0  0  0  0  0  0
   37.6540   36.7370   15.8880 C   0  0  0  0  0  0  0  0  0  0  0  0
   36.3060   36.4520   15.6570 C   0  0  0  0  0  0  0  0  0  0  0  0
   35.5240   35.9730   16.7130 C   0  0  0  0  0  0  0  0  0  0  0  0
   34.2460   37.1570   22.4610 C   0  0  0  0  0  0  0  0  0  0  0  0
   34.6020   39.3570   21.5020 C   0  0  0  0  0  0  0  0  0  0  0  0
   34.9980   35.9570   20.0440 C   0  0  0  0  0  0  0  0  0  0  0  0
   36.1160   35.7860   17.9650 C   0  0  0  0  0  0  0  0  0  0  0  0
   37.9910   35.9400   19.3810 F   0  0  0  0  0  0  0  0  0  0  0  0
   35.3730   35.1530   18.9690 O   0  0  0  0  0  0  0  0  0  0  0  0
   34.2970   39.9510   22.6650 N   0  0  0  0  0  0  0  0  0  0  0  0
   34.4520   33.8600   21.0700 O   0  0  0  0  0  0  0  0  0  0  0  0
   34.1840   35.7520   22.3590 N   0  0  0  0  0  0  0  0  0  0  0  0
   33.9520   37.7290   23.6710 N   0  0  0  0  0  0  0  0  0  0  0  0
   33.5930   39.7080   24.9270 N   0  0  0  0  0  0  0  0  0  0  0  0
   39.3360   36.8050   17.2800 H   0  0  0  0  0  0  0  0  0  0  0  0
   35.3110   37.9390   19.2670 H   0  0  0  0  0  0  0  0  0  0  0  0
   35.8510   36.6140   14.6780 H   0  0  0  0  0  0  0  0  0  0  0  0
   34.4610   35.7630   16.5540 H   0  0  0  0  0  0  0  0  0  0  0  0
   34.8470   40.0140   20.6510 H   0  0  0  0  0  0  0  0  0  0  0  0
   33.7170   40.7310   25.0480 H   0  0  0  0  0  0  0  0  0  0  0  0
   38.3700   37.2420   14.8870 F   0  0  0  0  0  0  0  0  0  0  0  0
   32.1410   38.9640   28.3800 C   0  0  0  0  0  0  0  0  0  0  0  0
   32.3170   39.6770   27.0340 C   0  0  0  0  0  0  0  0  0  0  0  0
   33.3630   38.9280   26.1810 C   0  0  0  0  0  0  0  0  0  0  0  0
   34.6810   38.7610   26.9700 C   0  0  0  0  0  0  0  0  0  0  0  0
   34.3930   38.0960   28.3210 C   0  0  0  0  0  0  0  0  0  0  0  0
   33.4000   38.8280   29.0770 O   0  0  0  0  0  0  0  0  0  0  0  0
   31.6910   37.9530   28.2390 H   0  0  0  0  0  0  0  0  0  0  0  0
   31.5430   39.5800   29.0900 H   0  0  0  0  0  0  0  0  0  0  0  0
   32.6470   40.7280   27.2080 H   0  0  0  0  0  0  0  0  0  0  0  0
   31.3410   39.7010   26.4910 H   0  0  0  0  0  0  0  0  0  0  0  0
   32.9570   37.9120   25.9090 H   0  0  0  0  0  0  0  0  0  0  0  0
   35.3900   38.1190   26.3930 H   0  0  0  0  0  0  0  0  0  0  0  0
   35.1580   39.7570   27.1280 H   0  0  0  0  0  0  0  0  0  0  0  0
   34.0390   37.0470   28.1810 H   0  0  0  0  0  0  0  0  0  0  0  0
   35.2820   38.1410   28.9920 H   0  0  0  0  0  0  0  0  0  0  0  0
   33.7880   34.9740   23.5530 C   0  0  0  0  0  0  0  0  0  0  0  0
   32.7540   33.8600   23.4400 C   0  0  0  0  0  0  0  0  0  0  0  0
   32.3920   35.1510   24.1450 C   0  0  0  0  0  0  0  0  0  0  0  0
   34.6390   34.8510   24.2510 H   0  0  0  0  0  0  0  0  0  0  0  0
   32.2720   33.6330   22.4820 H   0  0  0  0  0  0  0  0  0  0  0  0
   32.9210   32.9550   24.0470 H   0  0  0  0  0  0  0  0  0  0  0  0
   31.6720   35.8350   23.6790 H   0  0  0  0  0  0  0  0  0  0  0  0
   32.3050   35.1630   25.2430 H   0  0  0  0  0  0  0  0  0  0  0  0
  1  3  2  0  0  0  0
  1  7  1  0  0  0  0
  1 21  1  0  0  0  0
  2 12  1  0  0  0  0
  2 17  2  0  0  0  0
  2 18  1  0  0  0  0
  3 13  1  0  0  0  0
  3 14  1  0  0  0  0
  4 16  2  0  0  0  0
  4 19  1  0  0  0  0
  4 20  1  0  0  0  0
  5  6  1  0  0  0  0
  5 10  1  0  0  0  0
  5 11  2  0  0  0  0
  6 12  2  0  0  0  0
  6 22  1  0  0  0  0
  7  8  2  0  0  0  0
  7 27  1  0  0  0  0
  8  9  1  0  0  0  0
  8 23  1  0  0  0  0
  9 13  2  0  0  0  0
  9 24  1  0  0  0  0
 10 18  1  0  0  0  0
 10 19  2  0  0  0  0
 11 16  1  0  0  0  0
 11 25  1  0  0  0  0
 12 15  1  0  0  0  0
 13 15  1  0  0  0  0
 18 43  1  0  0  0  0
 20 26  1  0  0  0  0
 20 30  1  0  0  0  0
 28 29  1  0  0  0  0
 28 33  1  0  0  0  0
 28 34  1  0  0  0  0
 28 35  1  0  0  0  0
 29 30  1  0  0  0  0
 29 36  1  0  0  0  0
 29 37  1  0  0  0  0
 30 31  1  0  0  0  0
 30 38  1  0  0  0  0
 31 32  1  0  0  0  0
 31 39  1  0  0  0  0
 31 40  1  0  0  0  0
 32 33  1  0  0  0  0
 32 41  1  0  0  0  0
 32 42  1  0  0  0  0
 43 44  1  0  0  0  0
 43 45  1  0  0  0  0
 43 46  1  0  0  0  0
 44 45  1  0  0  0  0
 44 47  1  0  0  0  0
 44 48  1  0  0  0  0
 45 49  1  0  0  0  0
 45 50  1  0  0  0  0
M  END
$$$$
