p38a_2x
 OpenBabel02232411163D
Structure written by MMmdl.
 43 46  0  0  1  0  0  0  0  0999 V2000
   38.2790   36.5530   17.1280 C   0  0  0  0  0  0  0  0  0  0  0  0
   34.5480   35.0630   21.1510 C   0  0  0  0  0  0  0  0  0  0  0  0
   37.4740   36.0930   18.1670 C   0  0  0  0  0  0  0  0  0  0  0  0
   33.9640   39.0860   23.7690 C   0  0  0  0  0  0  0  0  0  0  0  0
   34.6110   37.9410   21.3470 C   0  0  0  0  0  0  0  0  0  0  0  0
   34.9990   37.3080   20.1160 C   0  0  0  0  0  0  0  0  0  0  0  0
   37.6510   36.7350   15.8880 C   0  0  0  0  0  0  0  0  0  0  0  0
   36.3020   36.4550   15.6590 C   0  0  0  0  0  0  0  0  0  0  0  0
   35.5180   35.9800   16.7150 C   0  0  0  0  0  0  0  0  0  0  0  0
   34.2690   37.1430   22.4800 C   0  0  0  0  0  0  0  0  0  0  0  0
   34.5720   39.3500   21.5200 C   0  0  0  0  0  0  0  0  0  0  0  0
   34.9960   35.9570   20.0490 C   0  0  0  0  0  0  0  0  0  0  0  0
   36.1110   35.7910   17.9660 C   0  0  0  0  0  0  0  0  0  0  0  0
   33.8920   34.9400   23.5860 C   0  0  0  0  0  0  0  0  0  0  0  0
   37.9860   35.9360   19.3810 F   0  0  0  0  0  0  0  0  0  0  0  0
   35.3660   35.1580   18.9700 O   0  0  0  0  0  0  0  0  0  0  0  0
   34.2670   39.9360   22.6900 N   0  0  0  0  0  0  0  0  0  0  0  0
   34.4300   33.8590   21.0770 O   0  0  0  0  0  0  0  0  0  0  0  0
   34.2430   35.7420   22.3800 N   0  0  0  0  0  0  0  0  0  0  0  0
   33.9590   37.7090   23.6910 N   0  0  0  0  0  0  0  0  0  0  0  0
   33.5820   39.6760   24.9620 N   0  0  0  0  0  0  0  0  0  0  0  0
   39.3340   36.7980   17.2810 H   0  0  0  0  0  0  0  0  0  0  0  0
   35.2950   37.9440   19.2790 H   0  0  0  0  0  0  0  0  0  0  0  0
   35.8480   36.6180   14.6790 H   0  0  0  0  0  0  0  0  0  0  0  0
   34.4550   35.7740   16.5560 H   0  0  0  0  0  0  0  0  0  0  0  0
   34.8000   40.0160   20.6710 H   0  0  0  0  0  0  0  0  0  0  0  0
   34.5870   35.1930   24.4320 H   0  0  0  0  0  0  0  0  0  0  0  0
   32.8420   35.1730   23.9090 H   0  0  0  0  0  0  0  0  0  0  0  0
   33.9740   33.8450   23.3600 H   0  0  0  0  0  0  0  0  0  0  0  0
   33.7320   40.6980   25.0840 H   0  0  0  0  0  0  0  0  0  0  0  0
   38.3690   37.2380   14.8870 F   0  0  0  0  0  0  0  0  0  0  0  0
   33.5030   39.4080   28.5530 O   0  0  0  0  0  0  0  0  0  0  0  0
   34.8790   39.0640   28.2220 C   0  0  0  0  0  0  0  0  0  0  0  0
   34.8690   38.4880   26.8000 C   0  0  0  0  0  0  0  0  0  0  0  0
   33.4860   38.8690   26.2080 C   0  0  1  0  0  0  0  0  0  0  0  0
   32.7880   39.6900   27.3260 C   0  0  0  0  0  0  0  0  0  0  0  0
   35.1680   38.3240   28.9970 H   0  0  0  0  0  0  0  0  0  0  0  0
   35.4850   39.9960   28.2900 H   0  0  0  0  0  0  0  0  0  0  0  0
   35.7040   38.9080   26.1980 H   0  0  0  0  0  0  0  0  0  0  0  0
   34.9800   37.3780   26.8130 H   0  0  0  0  0  0  0  0  0  0  0  0
   32.8930   37.9400   25.9780 H   0  0  0  0  0  0  0  0  0  0  0  0
   31.7490   39.3470   27.5200 H   0  0  0  0  0  0  0  0  0  0  0  0
   32.8360   40.7870   27.1490 H   0  0  0  0  0  0  0  0  0  0  0  0
  1  3  2  0  0  0  0
  1  7  1  0  0  0  0
  1 22  1  0  0  0  0
  2 12  1  0  0  0  0
  2 18  2  0  0  0  0
  2 19  1  0  0  0  0
  3 13  1  0  0  0  0
  3 15  1  0  0  0  0
  4 17  2  0  0  0  0
  4 20  1  0  0  0  0
  4 21  1  0  0  0  0
  5  6  1  0  0  0  0
  5 10  1  0  0  0  0
  5 11  2  0  0  0  0
  6 12  2  0  0  0  0
  6 23  1  0  0  0  0
  7  8  2  0  0  0  0
  7 31  1  0  0  0  0
  8  9  1  0  0  0  0
  8 24  1  0  0  0  0
  9 13  2  0  0  0  0
  9 25  1  0  0  0  0
 10 19  1  0  0  0  0
 10 20  2  0  0  0  0
 11 17  1  0  0  0  0
 11 26  1  0  0  0  0
 12 16  1  0  0  0  0
 13 16  1  0  0  0  0
 14 19  1  0  0  0  0
 14 27  1  0  0  0  0
 14 28  1  0  0  0  0
 14 29  1  0  0  0  0
 21 30  1  0  0  0  0
 21 35  1  0  0  0  0
 32 33  1  0  0  0  0
 32 36  1  0  0  0  0
 33 34  1  0  0  0  0
 33 37  1  0  0  0  0
 33 38  1  0  0  0  0
 34 35  1  0  0  0  0
 34 39  1  0  0  0  0
 34 40  1  0  0  0  0
 35 36  1  0  0  0  0
 35 41  1  1  0  0  0
 36 42  1  0  0  0  0
 36 43  1  0  0  0  0
M  END
$$$$
