p38a_3flw
 OpenBabel02232411163D
Structure written by MMmdl.
 49 51  0  0  0  0  0  0  0  0999 V2000
   38.2250   36.4810   17.2580 C   0  0  0  0  0  0  0  0  0  0  0  0
   37.5630   36.6170   16.0300 C   0  0  0  0  0  0  0  0  0  0  0  0
   31.8350   38.6780   25.9780 C   0  0  0  0  0  0  0  0  0  0  0  0
   30.7880   39.0660   24.9210 C   0  0  0  0  0  0  0  0  0  0  0  0
   34.1000   39.0840   27.0520 C   0  0  0  0  0  0  0  0  0  0  0  0
   33.7470   35.2710   23.8310 C   0  0  0  0  0  0  0  0  0  0  0  0
   38.0010   35.9350   19.5350 F   0  0  0  0  0  0  0  0  0  0  0  0
   37.4510   36.0560   18.3340 C   0  0  0  0  0  0  0  0  0  0  0  0
   38.2540   37.0860   14.9940 F   0  0  0  0  0  0  0  0  0  0  0  0
   36.2090   36.3230   15.8490 C   0  0  0  0  0  0  0  0  0  0  0  0
   35.4550   35.8900   16.9460 C   0  0  0  0  0  0  0  0  0  0  0  0
   36.0820   35.7470   18.1870 C   0  0  0  0  0  0  0  0  0  0  0  0
   35.3700   35.1600   19.2440 O   0  0  0  0  0  0  0  0  0  0  0  0
   34.9970   36.0230   20.2720 C   0  0  0  0  0  0  0  0  0  0  0  0
   35.0320   37.3760   20.2560 C   0  0  0  0  0  0  0  0  0  0  0  0
   34.6440   38.0910   21.4410 C   0  0  0  0  0  0  0  0  0  0  0  0
   34.6570   39.5100   21.5160 C   0  0  0  0  0  0  0  0  0  0  0  0
   34.3440   40.1810   22.6330 N   0  0  0  0  0  0  0  0  0  0  0  0
   34.5060   35.2150   21.4200 C   0  0  0  0  0  0  0  0  0  0  0  0
   34.3630   34.0120   21.4260 O   0  0  0  0  0  0  0  0  0  0  0  0
   34.1830   35.9810   22.5960 N   0  0  0  0  0  0  0  0  0  0  0  0
   34.2480   37.3830   22.6130 C   0  0  0  0  0  0  0  0  0  0  0  0
   33.9190   38.0410   23.7770 N   0  0  0  0  0  0  0  0  0  0  0  0
   33.9620   39.4140   23.7540 C   0  0  0  0  0  0  0  0  0  0  0  0
   33.5520   40.1620   24.8370 N   0  0  0  0  0  0  0  0  0  0  0  0
   33.0060   39.6640   26.1370 C   0  0  0  0  0  0  0  0  0  0  0  0
   35.2800   40.0350   27.2880 C   0  0  0  0  0  0  0  0  0  0  0  0
   34.8710   41.3670   27.6530 O   0  0  0  0  0  0  0  0  0  0  0  0
   30.5770   40.4860   24.8270 O   0  0  0  0  0  0  0  0  0  0  0  0
   39.2840   36.7340   17.3720 H   0  0  0  0  0  0  0  0  0  0  0  0
   31.3400   38.5920   26.9790 H   0  0  0  0  0  0  0  0  0  0  0  0
   32.2280   37.6580   25.7220 H   0  0  0  0  0  0  0  0  0  0  0  0
   31.0960   38.7000   23.9160 H   0  0  0  0  0  0  0  0  0  0  0  0
   29.7820   38.6840   25.2040 H   0  0  0  0  0  0  0  0  0  0  0  0
   33.6240   38.8240   28.0330 H   0  0  0  0  0  0  0  0  0  0  0  0
   34.4930   38.1280   26.6170 H   0  0  0  0  0  0  0  0  0  0  0  0
   32.6860   35.5480   24.0770 H   0  0  0  0  0  0  0  0  0  0  0  0
   33.8140   34.1620   23.6890 H   0  0  0  0  0  0  0  0  0  0  0  0
   34.3980   35.5710   24.6980 H   0  0  0  0  0  0  0  0  0  0  0  0
   35.7290   36.4430   14.8740 H   0  0  0  0  0  0  0  0  0  0  0  0
   34.3870   35.6820   16.8250 H   0  0  0  0  0  0  0  0  0  0  0  0
   35.3530   37.9520   19.3860 H   0  0  0  0  0  0  0  0  0  0  0  0
   34.9210   40.0990   20.6250 H   0  0  0  0  0  0  0  0  0  0  0  0
   33.8210   41.1640   24.8740 H   0  0  0  0  0  0  0  0  0  0  0  0
   32.5990   40.6040   26.6250 H   0  0  0  0  0  0  0  0  0  0  0  0
   35.8760   39.7030   28.1720 H   0  0  0  0  0  0  0  0  0  0  0  0
   35.9060   40.1120   26.3730 H   0  0  0  0  0  0  0  0  0  0  0  0
   34.3560   41.7520   26.8870 H   0  0  0  0  0  0  0  0  0  0  0  0
   31.4450   40.9020   24.6650 H   0  0  0  0  0  0  0  0  0  0  0  0
  1  2  2  0  0  0  0
  1  8  1  0  0  0  0
  1 30  1  0  0  0  0
  2  9  1  0  0  0  0
  2 10  1  0  0  0  0
  3  4  1  0  0  0  0
  3 26  1  0  0  0  0
  3 31  1  0  0  0  0
  3 32  1  0  0  0  0
  4 29  1  0  0  0  0
  4 33  1  0  0  0  0
  4 34  1  0  0  0  0
  5 26  1  0  0  0  0
  5 27  1  0  0  0  0
  5 35  1  0  0  0  0
  5 36  1  0  0  0  0
  6 21  1  0  0  0  0
  6 37  1  0  0  0  0
  6 38  1  0  0  0  0
  6 39  1  0  0  0  0
  7  8  1  0  0  0  0
  8 12  2  0  0  0  0
 10 11  2  0  0  0  0
 10 40  1  0  0  0  0
 11 12  1  0  0  0  0
 11 41  1  0  0  0  0
 12 13  1  0  0  0  0
 13 14  1  0  0  0  0
 14 15  2  0  0  0  0
 14 19  1  0  0  0  0
 15 16  1  0  0  0  0
 15 42  1  0  0  0  0
 16 17  2  0  0  0  0
 16 22  1  0  0  0  0
 17 18  1  0  0  0  0
 17 43  1  0  0  0  0
 18 24  2  0  0  0  0
 19 20  2  0  0  0  0
 19 21  1  0  0  0  0
 21 22  1  0  0  0  0
 22 23  2  0  0  0  0
 23 24  1  0  0  0  0
 24 25  1  0  0  0  0
 25 26  1  0  0  0  0
 25 44  1  0  0  0  0
 26 45  1  0  0  0  0
 27 28  1  0  0  0  0
 27 46  1  0  0  0  0
 27 47  1  0  0  0  0
 28 48  1  0  0  0  0
 29 49  1  0  0  0  0
M  END
$$$$
