p38a_2u
 OpenBabel02232411163D
Structure written by MMmdl.
 64 68  0  0  0  0  0  0  0  0999 V2000
   38.2660   36.5400   17.1720 C   0  0  0  0  0  0  0  0  0  0  0  0
   34.5090   35.1270   21.2360 C   0  0  0  0  0  0  0  0  0  0  0  0
   37.4730   36.0910   18.2250 C   0  0  0  0  0  0  0  0  0  0  0  0
   33.9910   39.2210   23.7610 C   0  0  0  0  0  0  0  0  0  0  0  0
   34.6050   38.0040   21.3640 C   0  0  0  0  0  0  0  0  0  0  0  0
   35.0060   37.3430   20.1530 C   0  0  0  0  0  0  0  0  0  0  0  0
   37.6250   36.7020   15.9360 C   0  0  0  0  0  0  0  0  0  0  0  0
   36.2750   36.4140   15.7230 C   0  0  0  0  0  0  0  0  0  0  0  0
   35.5030   35.9530   16.7940 C   0  0  0  0  0  0  0  0  0  0  0  0
   34.2210   37.2370   22.5030 C   0  0  0  0  0  0  0  0  0  0  0  0
   34.5980   39.4190   21.5060 C   0  0  0  0  0  0  0  0  0  0  0  0
   34.9900   35.9920   20.1210 C   0  0  0  0  0  0  0  0  0  0  0  0
   36.1080   35.7840   18.0430 C   0  0  0  0  0  0  0  0  0  0  0  0
   37.9990   35.9520   19.4350 F   0  0  0  0  0  0  0  0  0  0  0  0
   35.3750   35.1670   19.0650 O   0  0  0  0  0  0  0  0  0  0  0  0
   34.3070   40.0410   22.6580 N   0  0  0  0  0  0  0  0  0  0  0  0
   34.4160   33.9200   21.1640 O   0  0  0  0  0  0  0  0  0  0  0  0
   34.1290   35.8300   22.4320 N   0  0  0  0  0  0  0  0  0  0  0  0
   33.9320   37.8420   23.6970 N   0  0  0  0  0  0  0  0  0  0  0  0
   33.6610   39.8340   24.9470 N   0  0  0  0  0  0  0  0  0  0  0  0
   39.3220   36.7880   17.3110 H   0  0  0  0  0  0  0  0  0  0  0  0
   35.3230   37.9560   19.3070 H   0  0  0  0  0  0  0  0  0  0  0  0
   35.8110   36.5590   14.7450 H   0  0  0  0  0  0  0  0  0  0  0  0
   34.4380   35.7420   16.6510 H   0  0  0  0  0  0  0  0  0  0  0  0
   34.8390   40.0540   20.6380 H   0  0  0  0  0  0  0  0  0  0  0  0
   33.8000   40.8570   25.0540 H   0  0  0  0  0  0  0  0  0  0  0  0
   38.3320   37.1940   14.9210 F   0  0  0  0  0  0  0  0  0  0  0  0
   32.3940   39.1040   28.4770 C   0  0  0  0  0  0  0  0  0  0  0  0
   32.4950   39.8100   27.1190 C   0  0  0  0  0  0  0  0  0  0  0  0
   33.5050   39.0650   26.2210 C   0  0  0  0  0  0  0  0  0  0  0  0
   34.8640   38.9240   26.9420 C   0  0  0  0  0  0  0  0  0  0  0  0
   34.6560   38.2660   28.3130 C   0  0  0  0  0  0  0  0  0  0  0  0
   33.6870   38.9810   29.1120 O   0  0  0  0  0  0  0  0  0  0  0  0
   31.9470   38.0890   28.3650 H   0  0  0  0  0  0  0  0  0  0  0  0
   31.8310   39.7250   29.2110 H   0  0  0  0  0  0  0  0  0  0  0  0
   32.8280   40.8650   27.2710 H   0  0  0  0  0  0  0  0  0  0  0  0
   31.4950   39.8260   26.6240 H   0  0  0  0  0  0  0  0  0  0  0  0
   33.1020   38.0410   25.9810 H   0  0  0  0  0  0  0  0  0  0  0  0
   35.5490   38.2850   26.3350 H   0  0  0  0  0  0  0  0  0  0  0  0
   35.3350   39.9270   27.0670 H   0  0  0  0  0  0  0  0  0  0  0  0
   34.3280   37.2070   28.1950 H   0  0  0  0  0  0  0  0  0  0  0  0
   35.5770   38.3390   28.9370 H   0  0  0  0  0  0  0  0  0  0  0  0
   34.4310   33.7100   25.6430 C   0  0  0  0  0  0  0  0  0  0  0  0
   34.8590   34.2800   24.2700 C   0  0  0  0  0  0  0  0  0  0  0  0
   33.6830   35.0670   23.6640 C   0  0  0  0  0  0  0  0  0  0  0  0
   32.4800   34.1500   23.3620 C   0  0  0  0  0  0  0  0  0  0  0  0
   32.4160   32.9730   24.3640 C   0  0  0  0  0  0  0  0  0  0  0  0
   34.6230   34.4830   26.4370 H   0  0  0  0  0  0  0  0  0  0  0  0
   35.0700   32.8070   25.8450 H   0  0  0  0  0  0  0  0  0  0  0  0
   35.1610   33.4410   23.6010 H   0  0  0  0  0  0  0  0  0  0  0  0
   35.7380   34.9470   24.4310 H   0  0  0  0  0  0  0  0  0  0  0  0
   33.3500   35.8240   24.4380 H   0  0  0  0  0  0  0  0  0  0  0  0
   31.5460   34.7580   23.4350 H   0  0  0  0  0  0  0  0  0  0  0  0
   32.5380   33.7140   22.3370 H   0  0  0  0  0  0  0  0  0  0  0  0
   31.3440   32.6670   24.4880 H   0  0  0  0  0  0  0  0  0  0  0  0
   33.0050   32.1050   23.9600 H   0  0  0  0  0  0  0  0  0  0  0  0
   32.9750   33.3760   25.6880 N   0  0  0  0  0  0  0  0  0  0  0  0
   32.3470   32.6770   27.1240 S   0  0  0  0  0  0  0  0  0  0  0  0
   31.1070   31.9560   26.7610 O   0  0  0  0  0  0  0  0  0  0  0  0
   32.0930   33.7400   28.1080 O   0  0  0  0  0  0  0  0  0  0  0  0
   33.5490   31.5840   27.7370 C   0  0  0  0  0  0  0  0  0  0  0  0
   33.9030   30.8540   26.9640 H   0  0  0  0  0  0  0  0  0  0  0  0
   34.4500   32.1180   28.1380 H   0  0  0  0  0  0  0  0  0  0  0  0
   33.1520   30.9680   28.5890 H   0  0  0  0  0  0  0  0  0  0  0  0
  1  3  2  0  0  0  0
  1  7  1  0  0  0  0
  1 21  1  0  0  0  0
  2 12  1  0  0  0  0
  2 17  2  0  0  0  0
  2 18  1  0  0  0  0
  3 13  1  0  0  0  0
  3 14  1  0  0  0  0
  4 16  2  0  0  0  0
  4 19  1  0  0  0  0
  4 20  1  0  0  0  0
  5  6  1  0  0  0  0
  5 10  1  0  0  0  0
  5 11  2  0  0  0  0
  6 12  2  0  0  0  0
  6 22  1  0  0  0  0
  7  8  2  0  0  0  0
  7 27  1  0  0  0  0
  8  9  1  0  0  0  0
  8 23  1  0  0  0  0
  9 13  2  0  0  0  0
  9 24  1  0  0  0  0
 10 18  1  0  0  0  0
 10 19  2  0  0  0  0
 11 16  1  0  0  0  0
 11 25  1  0  0  0  0
 12 15  1  0  0  0  0
 13 15  1  0  0  0  0
 18 45  1  0  0  0  0
 20 26  1  0  0  0  0
 20 30  1  0  0  0  0
 28 29  1  0  0  0  0
 28 33  1  0  0  0  0
 28 34  1  0  0  0  0
 28 35  1  0  0  0  0
 29 30  1  0  0  0  0
 29 36  1  0  0  0  0
 29 37  1  0  0  0  0
 30 31  1  0  0  0  0
 30 38  1  0  0  0  0
 31 32  1  0  0  0  0
 31 39  1  0  0  0  0
 31 40  1  0  0  0  0
 32 33  1  0  0  0  0
 32 41  1  0  0  0  0
 32 42  1  0  0  0  0
 43 44  1  0  0  0  0
 43 48  1  0  0  0  0
 43 49  1  0  0  0  0
 43 57  1  0  0  0  0
 44 45  1  0  0  0  0
 44 50  1  0  0  0  0
 44 51  1  0  0  0  0
 45 46  1  0  0  0  0
 45 52  1  0  0  0  0
 46 47  1  0  0  0  0
 46 53  1  0  0  0  0
 46 54  1  0  0  0  0
 47 55  1  0  0  0  0
 47 56  1  0  0  0  0
 47 57  1  0  0  0  0
 57 58  1  0  0  0  0
 58 59  2  0  0  0  0
 58 60  2  0  0  0  0
 58 61  1  0  0  0  0
 61 62  1  0  0  0  0
 61 63  1  0  0  0  0
 61 64  1  0  0  0  0
M  END
$$$$
