CAT-13j
 OpenBabel02232411143D
Structure written by MMmdl.
 45 48  0  0  1  0  0  0  0  0999 V2000
   11.5620   -2.5120    1.4330 C   0  0  0  0  0  0  0  0  0  0  0  0
   12.8980   -2.5240    0.8040 N   0  0  0  0  0  0  0  0  0  0  0  0
   14.0880   -2.4500    1.5110 C   0  0  0  0  0  0  0  0  0  0  0  0
   14.2650   -2.5090    2.8630 N   0  0  0  0  0  0  0  0  0  0  0  0
   15.1710   -2.3870    0.6210 N   0  3  0  0  0  0  0  0  0  0  0  0
   14.7190   -2.8370   -0.7540 C   0  0  1  0  0  0  0  0  0  0  0  0
   15.2460   -1.8800   -1.7950 C   0  0  0  0  0  0  0  0  0  0  0  0
   15.8850   -2.2990   -2.9660 C   0  0  0  0  0  0  0  0  0  0  0  0
   16.3360   -1.3340   -3.8750 C   0  0  0  0  0  0  0  0  0  0  0  0
   16.1680    0.0300   -3.6290 C   0  0  0  0  0  0  0  0  0  0  0  0
   15.5250    0.4610   -2.4560 C   0  0  0  0  0  0  0  0  0  0  0  0
   15.3210    1.8940   -2.1420 C   0  0  0  0  0  0  0  0  0  0  0  0
   14.9530    2.8170   -3.1350 C   0  0  0  0  0  0  0  0  0  0  0  0
   14.6650    4.1430   -2.7940 C   0  0  0  0  0  0  0  0  0  0  0  0
   14.7200    4.5670   -1.4630 C   0  0  0  0  0  0  0  0  0  0  0  0
   15.1100    3.6450   -0.4890 C   0  0  0  0  0  0  0  0  0  0  0  0
   15.1250    4.1130    1.1720 Cl  0  0  0  0  0  0  0  0  0  0  0  0
   15.4390    2.3290   -0.8100 C   0  0  0  0  0  0  0  0  0  0  0  0
   15.0510   -0.5080   -1.5600 C   0  0  0  0  0  0  0  0  0  0  0  0
   15.0740   -4.3180   -0.7920 C   0  0  0  0  0  0  0  0  0  0  0  0
   16.4010   -4.7490   -0.8050 C   0  0  0  0  0  0  0  0  0  0  0  0
   16.6580   -6.1010   -0.5330 C   0  0  0  0  0  0  0  0  0  0  0  0
   15.5980   -6.9590   -0.2480 C   0  0  0  0  0  0  0  0  0  0  0  0
   14.2800   -6.4550   -0.2980 C   0  0  0  0  0  0  0  0  0  0  0  0
   14.0140   -5.1560   -0.5700 N   0  0  0  0  0  0  0  0  0  0  0  0
   13.1600   -2.7010   -0.6480 C   0  0  0  0  0  0  0  0  0  0  0  0
   12.2970   -2.7020   -1.4590 O   0  0  0  0  0  0  0  0  0  0  0  0
   11.6290   -2.7830    2.5190 H   0  0  0  0  0  0  0  0  0  0  0  0
   11.1210   -1.4840    1.3340 H   0  0  0  0  0  0  0  0  0  0  0  0
   10.9000   -3.2620    0.9200 H   0  0  0  0  0  0  0  0  0  0  0  0
   15.2510   -2.3940    3.2360 H   0  0  0  0  0  0  0  0  0  0  0  0
   16.1240   -2.6760    0.9750 H   0  0  0  0  0  0  0  0  0  0  0  0
   16.0360   -3.3600   -3.1700 H   0  0  0  0  0  0  0  0  0  0  0  0
   16.8410   -1.6460   -4.7920 H   0  0  0  0  0  0  0  0  0  0  0  0
   16.5470    0.7570   -4.3550 H   0  0  0  0  0  0  0  0  0  0  0  0
   14.8730    2.5000   -4.1790 H   0  0  0  0  0  0  0  0  0  0  0  0
   14.3710    4.8500   -3.5800 H   0  0  0  0  0  0  0  0  0  0  0  0
   14.4410    5.5890   -1.1940 H   0  0  0  0  0  0  0  0  0  0  0  0
   15.7720    1.6350   -0.0360 H   0  0  0  0  0  0  0  0  0  0  0  0
   14.5250   -0.1980   -0.6590 H   0  0  0  0  0  0  0  0  0  0  0  0
   17.2180   -4.0420   -0.9630 H   0  0  0  0  0  0  0  0  0  0  0  0
   17.6980   -6.4450   -0.5050 H   0  0  0  0  0  0  0  0  0  0  0  0
   15.7620   -8.0090    0.0160 H   0  0  0  0  0  0  0  0  0  0  0  0
   13.4130   -7.1080   -0.0980 H   0  0  0  0  0  0  0  0  0  0  0  0
   13.5630   -2.0820    3.5170 H   0  0  0  0  0  0  0  0  0  0  0  0
  1  2  1  0  0  0  0
  1 28  1  0  0  0  0
  1 29  1  0  0  0  0
  1 30  1  0  0  0  0
  2  3  1  0  0  0  0
  2 26  1  0  0  0  0
  3  4  1  0  0  0  0
  3  5  2  0  0  0  0
  4 31  1  0  0  0  0
  4 45  1  0  0  0  0
  5  6  1  0  0  0  0
  5 32  1  0  0  0  0
  6  7  1  6  0  0  0
  6 20  1  0  0  0  0
  6 26  1  0  0  0  0
  7  8  2  0  0  0  0
  7 19  1  0  0  0  0
  8  9  1  0  0  0  0
  8 33  1  0  0  0  0
  9 10  2  0  0  0  0
  9 34  1  0  0  0  0
 10 11  1  0  0  0  0
 10 35  1  0  0  0  0
 11 12  1  0  0  0  0
 11 19  2  0  0  0  0
 12 13  2  0  0  0  0
 12 18  1  0  0  0  0
 13 14  1  0  0  0  0
 13 36  1  0  0  0  0
 14 15  2  0  0  0  0
 14 37  1  0  0  0  0
 15 16  1  0  0  0  0
 15 38  1  0  0  0  0
 16 17  1  0  0  0  0
 16 18  2  0  0  0  0
 18 39  1  0  0  0  0
 19 40  1  0  0  0  0
 20 21  2  0  0  0  0
 20 25  1  0  0  0  0
 21 22  1  0  0  0  0
 21 41  1  0  0  0  0
 22 23  2  0  0  0  0
 22 42  1  0  0  0  0
 23 24  1  0  0  0  0
 23 43  1  0  0  0  0
 24 25  2  0  0  0  0
 24 44  1  0  0  0  0
 26 27  2  0  0  0  0
M  CHG  1   5   1
M  END
$$$$
