p38a_3fly
 OpenBabel02232411163D
Structure written by MMmdl.
 41 43  0  0  0  0  0  0  0  0999 V2000
   34.6920   39.2840   21.5480 C   0  0  0  0  0  0  0  0  0  0  0  0
   34.1450   37.0900   22.4260 C   0  0  0  0  0  0  0  0  0  0  0  0
   34.3160   39.8710   22.6930 N   0  0  0  0  0  0  0  0  0  0  0  0
   34.6560   37.8770   21.3520 C   0  0  0  0  0  0  0  0  0  0  0  0
   35.1140   37.2410   20.1470 C   0  0  0  0  0  0  0  0  0  0  0  0
   35.0520   35.8930   20.0600 C   0  0  0  0  0  0  0  0  0  0  0  0
   34.4810   35.0080   21.1090 C   0  0  0  0  0  0  0  0  0  0  0  0
   33.8560   39.0300   23.7280 C   0  0  0  0  0  0  0  0  0  0  0  0
   32.7530   38.9130   25.9900 C   0  0  0  0  0  0  0  0  0  0  0  0
   32.9640   39.6510   27.3180 C   0  0  0  0  0  0  0  0  0  0  0  0
   31.2720   38.8900   25.5800 C   0  0  0  0  0  0  0  0  0  0  0  0
   36.1890   35.7390   17.9880 C   0  0  0  0  0  0  0  0  0  0  0  0
   35.5800   35.9040   16.7410 C   0  0  0  0  0  0  0  0  0  0  0  0
   36.3390   36.4000   15.6760 C   0  0  0  0  0  0  0  0  0  0  0  0
   37.6800   36.7230   15.8920 C   0  0  0  0  0  0  0  0  0  0  0  0
   38.3240   36.5670   17.1270 C   0  0  0  0  0  0  0  0  0  0  0  0
   37.5430   36.0880   18.1760 C   0  0  0  0  0  0  0  0  0  0  0  0
   38.3730   37.2450   14.8830 F   0  0  0  0  0  0  0  0  0  0  0  0
   38.0690   35.9600   19.3870 F   0  0  0  0  0  0  0  0  0  0  0  0
   35.4760   35.0880   19.0020 O   0  0  0  0  0  0  0  0  0  0  0  0
   34.3650   33.8040   21.0270 O   0  0  0  0  0  0  0  0  0  0  0  0
   34.0500   35.6930   22.2970 N   0  0  0  0  0  0  0  0  0  0  0  0
   33.4780   34.9020   23.4220 C   0  0  0  0  0  0  0  0  0  0  0  0
   33.7370   37.6580   23.6060 N   0  0  0  0  0  0  0  0  0  0  0  0
   33.5740   39.6120   24.9430 N   0  0  0  0  0  0  0  0  0  0  0  0
   35.0330   39.9420   20.7330 H   0  0  0  0  0  0  0  0  0  0  0  0
   35.5040   37.8730   19.3460 H   0  0  0  0  0  0  0  0  0  0  0  0
   33.1300   37.8560   26.0930 H   0  0  0  0  0  0  0  0  0  0  0  0
   34.0470   39.6870   27.5790 H   0  0  0  0  0  0  0  0  0  0  0  0
   32.5770   40.6920   27.2680 H   0  0  0  0  0  0  0  0  0  0  0  0
   32.4260   39.1110   28.1310 H   0  0  0  0  0  0  0  0  0  0  0  0
   31.1110   38.1850   24.7360 H   0  0  0  0  0  0  0  0  0  0  0  0
   30.6560   38.5470   26.4420 H   0  0  0  0  0  0  0  0  0  0  0  0
   30.9290   39.9030   25.2810 H   0  0  0  0  0  0  0  0  0  0  0  0
   34.5210   35.6670   16.5920 H   0  0  0  0  0  0  0  0  0  0  0  0
   35.8710   36.5460   14.7000 H   0  0  0  0  0  0  0  0  0  0  0  0
   39.3720   36.8440   17.2700 H   0  0  0  0  0  0  0  0  0  0  0  0
   33.5120   33.8070   23.1850 H   0  0  0  0  0  0  0  0  0  0  0  0
   34.0600   35.0910   24.3650 H   0  0  0  0  0  0  0  0  0  0  0  0
   32.4110   35.2070   23.5990 H   0  0  0  0  0  0  0  0  0  0  0  0
   33.5810   40.6500   25.0160 H   0  0  0  0  0  0  0  0  0  0  0  0
  1  3  2  0  0  0  0
  1  4  1  0  0  0  0
  1 26  1  0  0  0  0
  2  4  2  0  0  0  0
  2 22  1  0  0  0  0
  2 24  1  0  0  0  0
  3  8  1  0  0  0  0
  4  5  1  0  0  0  0
  5  6  2  0  0  0  0
  5 27  1  0  0  0  0
  6  7  1  0  0  0  0
  6 20  1  0  0  0  0
  7 21  2  0  0  0  0
  7 22  1  0  0  0  0
  8 24  2  0  0  0  0
  8 25  1  0  0  0  0
  9 10  1  0  0  0  0
  9 11  1  0  0  0  0
  9 25  1  0  0  0  0
  9 28  1  0  0  0  0
 10 29  1  0  0  0  0
 10 30  1  0  0  0  0
 10 31  1  0  0  0  0
 11 32  1  0  0  0  0
 11 33  1  0  0  0  0
 11 34  1  0  0  0  0
 12 13  2  0  0  0  0
 12 17  1  0  0  0  0
 12 20  1  0  0  0  0
 13 14  1  0  0  0  0
 13 35  1  0  0  0  0
 14 15  2  0  0  0  0
 14 36  1  0  0  0  0
 15 16  1  0  0  0  0
 15 18  1  0  0  0  0
 16 17  2  0  0  0  0
 16 37  1  0  0  0  0
 17 19  1  0  0  0  0
 22 23  1  0  0  0  0
 23 38  1  0  0  0  0
 23 39  1  0  0  0  0
 23 40  1  0  0  0  0
 25 41  1  0  0  0  0
M  END
$$$$
