45
 OpenBabel02232411163D
Structure written by MMmdl.
 48 51  0  0  0  0  0  0  0  0999 V2000
    3.6380  -49.9480    5.7980 O   0  0  0  0  0  0  0  0  0  0  0  0
    2.9390  -49.1230    6.4190 C   0  0  0  0  0  0  0  0  0  0  0  0
    3.3450  -48.1590    7.0820 O   0  5  0  0  0  0  0  0  0  0  0  0
    1.4220  -49.3930    6.3610 C   0  0  0  0  0  0  0  0  0  0  0  0
   -0.4440  -50.7110    6.5360 C   0  0  0  0  0  0  0  0  0  0  0  0
   -1.3690  -51.7470    6.7540 C   0  0  0  0  0  0  0  0  0  0  0  0
   -2.7070  -51.4680    6.5190 C   0  0  0  0  0  0  0  0  0  0  0  0
   -3.1260  -50.1900    6.0780 C   0  0  0  0  0  0  0  0  0  0  0  0
   -2.2170  -49.1630    5.8620 C   0  0  0  0  0  0  0  0  0  0  0  0
   -0.8520  -49.4020    6.0890 C   0  0  0  0  0  0  0  0  0  0  0  0
    0.3460  -48.5930    5.9960 C   0  0  0  0  0  0  0  0  0  0  0  0
    0.3360  -47.1710    5.5630 C   0  0  0  0  0  0  0  0  0  0  0  0
    0.1980  -46.1770    6.7320 C   0  0  0  0  0  0  0  0  0  0  0  0
   -1.1600  -46.2410    7.4370 C   0  0  0  0  0  0  0  0  0  0  0  0
   -2.1410  -45.9710    6.3770 O   0  0  0  0  0  0  0  0  0  0  0  0
   -3.3550  -45.4050    6.6870 C   0  0  0  0  0  0  0  0  0  0  0  0
   -5.8390  -44.1570    6.8880 C   0  0  0  0  0  0  0  0  0  0  0  0
   -5.0210  -43.8900    5.7910 C   0  0  0  0  0  0  0  0  0  0  0  0
   -3.7730  -44.4950    5.6960 C   0  0  0  0  0  0  0  0  0  0  0  0
   -1.0560  -52.7310    7.0990 H   0  0  0  0  0  0  0  0  0  0  0  0
   -3.4610  -52.2400    6.6790 H   0  0  0  0  0  0  0  0  0  0  0  0
   -4.1890  -50.0150    5.9120 H   0  0  0  0  0  0  0  0  0  0  0  0
   -2.5680  -48.1800    5.5360 H   0  0  0  0  0  0  0  0  0  0  0  0
   -0.5430  -47.0150    4.8830 H   0  0  0  0  0  0  0  0  0  0  0  0
    1.2680  -46.9210    5.0030 H   0  0  0  0  0  0  0  0  0  0  0  0
    0.3350  -45.1450    6.3370 H   0  0  0  0  0  0  0  0  0  0  0  0
    0.9810  -46.3880    7.4970 H   0  0  0  0  0  0  0  0  0  0  0  0
   -1.2570  -45.4610    8.2190 H   0  0  0  0  0  0  0  0  0  0  0  0
   -1.3880  -47.2610    7.8100 H   0  0  0  0  0  0  0  0  0  0  0  0
   -3.1230  -44.2790    4.8600 H   0  0  0  0  0  0  0  0  0  0  0  0
   -5.4180  -45.0540    7.8850 C   0  0  0  0  0  0  0  0  0  0  0  0
   -4.1880  -45.7310    7.7820 C   0  0  0  0  0  0  0  0  0  0  0  0
   -3.8260  -46.8270    8.7470 C   0  0  0  0  0  0  0  0  0  0  0  0
   -5.0330  -47.3360    9.5470 C   0  0  0  0  0  0  0  0  0  0  0  0
   -5.8230  -46.1680   10.1410 C   0  0  0  0  0  0  0  0  0  0  0  0
   -6.3680  -45.2570    9.0370 C   0  0  0  0  0  0  0  0  0  0  0  0
   -5.3580  -43.2030    5.0160 H   0  0  0  0  0  0  0  0  0  0  0  0
   -6.8140  -43.6810    6.9660 H   0  0  0  0  0  0  0  0  0  0  0  0
   -3.4260  -47.6970    8.1650 H   0  0  0  0  0  0  0  0  0  0  0  0
   -3.0580  -46.4600    9.4660 H   0  0  0  0  0  0  0  0  0  0  0  0
   -5.7010  -47.9170    8.8730 H   0  0  0  0  0  0  0  0  0  0  0  0
   -4.6830  -48.0040   10.3660 H   0  0  0  0  0  0  0  0  0  0  0  0
   -5.1530  -45.5800   10.7960 H   0  0  0  0  0  0  0  0  0  0  0  0
   -6.6720  -46.5470   10.7510 H   0  0  0  0  0  0  0  0  0  0  0  0
   -6.6060  -44.2620    9.4810 H   0  0  0  0  0  0  0  0  0  0  0  0
   -7.3180  -45.6920    8.6330 H   0  0  0  0  0  0  0  0  0  0  0  0
    0.9500  -50.6790    6.6990 N   0  0  0  0  0  0  0  0  0  0  0  0
    1.4970  -51.4810    6.9860 H   0  0  0  0  0  0  0  0  0  0  0  0
  1  2  2  0  0  0  0
  2  3  1  0  0  0  0
  2  4  1  0  0  0  0
  4 11  2  0  0  0  0
  4 47  1  0  0  0  0
  5  6  2  0  0  0  0
  5 10  1  0  0  0  0
  5 47  1  0  0  0  0
  6  7  1  0  0  0  0
  6 20  1  0  0  0  0
  7  8  2  0  0  0  0
  7 21  1  0  0  0  0
  8  9  1  0  0  0  0
  8 22  1  0  0  0  0
  9 10  2  0  0  0  0
  9 23  1  0  0  0  0
 10 11  1  0  0  0  0
 11 12  1  0  0  0  0
 12 24  1  0  0  0  0
 12 25  1  0  0  0  0
 12 13  1  0  0  0  0
 13 14  1  0  0  0  0
 13 26  1  0  0  0  0
 13 27  1  0  0  0  0
 14 15  1  0  0  0  0
 14 28  1  0  0  0  0
 14 29  1  0  0  0  0
 15 16  1  0  0  0  0
 16 19  2  0  0  0  0
 16 32  1  0  0  0  0
 17 18  2  0  0  0  0
 17 31  1  0  0  0  0
 17 38  1  0  0  0  0
 18 19  1  0  0  0  0
 18 37  1  0  0  0  0
 19 30  1  0  0  0  0
 31 32  2  0  0  0  0
 31 36  1  0  0  0  0
 32 33  1  0  0  0  0
 33 34  1  0  0  0  0
 33 39  1  0  0  0  0
 33 40  1  0  0  0  0
 34 35  1  0  0  0  0
 34 41  1  0  0  0  0
 34 42  1  0  0  0  0
 35 36  1  0  0  0  0
 35 43  1  0  0  0  0
 35 44  1  0  0  0  0
 36 45  1  0  0  0  0
 36 46  1  0  0  0  0
 47 48  1  0  0  0  0
M  CHG  1   3  -1
M  END
$$$$
