p38a_2x
 OpenBabel02232411163D
Structure written by MMmdl.
 43 46  0  0  1  0  0  0  0  0999 V2000
   38.2580   36.5380   17.1290 C   0  0  0  0  0  0  0  0  0  0  0  0
   34.6300   35.0940   21.1730 C   0  0  0  0  0  0  0  0  0  0  0  0
   37.4390   36.0780   18.1560 C   0  0  0  0  0  0  0  0  0  0  0  0
   34.3770   39.1500   23.7930 C   0  0  0  0  0  0  0  0  0  0  0  0
   34.7070   37.9710   21.3290 C   0  0  0  0  0  0  0  0  0  0  0  0
   34.9900   37.3240   20.0780 C   0  0  0  0  0  0  0  0  0  0  0  0
   37.6470   36.7270   15.8820 C   0  0  0  0  0  0  0  0  0  0  0  0
   36.3010   36.4530   15.6340 C   0  0  0  0  0  0  0  0  0  0  0  0
   35.5010   35.9770   16.6780 C   0  0  0  0  0  0  0  0  0  0  0  0
   34.5150   37.1870   22.5070 C   0  0  0  0  0  0  0  0  0  0  0  0
   34.6270   39.3820   21.4750 C   0  0  0  0  0  0  0  0  0  0  0  0
   34.9970   35.9720   20.0310 C   0  0  0  0  0  0  0  0  0  0  0  0
   36.0750   35.7840   17.9380 C   0  0  0  0  0  0  0  0  0  0  0  0
   34.2570   34.9950   23.6690 C   0  0  0  0  0  0  0  0  0  0  0  0
   37.9360   35.9140   19.3750 F   0  0  0  0  0  0  0  0  0  0  0  0
   35.3030   35.1690   18.9320 O   0  0  0  0  0  0  0  0  0  0  0  0
   34.4540   39.9840   22.6610 N   0  0  0  0  0  0  0  0  0  0  0  0
   34.4630   33.8950   21.1180 O   0  0  0  0  0  0  0  0  0  0  0  0
   34.4720   35.7870   22.4250 N   0  0  0  0  0  0  0  0  0  0  0  0
   34.3540   37.7710   23.7400 N   0  0  0  0  0  0  0  0  0  0  0  0
   34.3650   39.7630   25.0270 N   0  0  0  0  0  0  0  0  0  0  0  0
   39.3130   36.7780   17.2960 H   0  0  0  0  0  0  0  0  0  0  0  0
   35.2100   37.9490   19.2100 H   0  0  0  0  0  0  0  0  0  0  0  0
   35.8600   36.6220   14.6500 H   0  0  0  0  0  0  0  0  0  0  0  0
   34.4390   35.7750   16.5050 H   0  0  0  0  0  0  0  0  0  0  0  0
   34.7010   40.0340   20.5870 H   0  0  0  0  0  0  0  0  0  0  0  0
   35.0340   35.2670   24.4350 H   0  0  0  0  0  0  0  0  0  0  0  0
   33.2420   35.2190   24.0960 H   0  0  0  0  0  0  0  0  0  0  0  0
   34.3280   33.8980   23.4480 H   0  0  0  0  0  0  0  0  0  0  0  0
   34.1450   40.7780   25.0960 H   0  0  0  0  0  0  0  0  0  0  0  0
   38.3780   37.2350   14.8930 F   0  0  0  0  0  0  0  0  0  0  0  0
   32.5100   39.0300   27.9590 O   0  0  0  0  0  0  0  0  0  0  0  0
   33.4090   40.1270   28.2750 C   0  0  0  0  0  0  0  0  0  0  0  0
   34.7000   39.8780   27.4830 C   0  0  0  0  0  0  0  0  0  0  0  0
   34.2680   38.9880   26.2930 C   0  0  1  0  0  0  0  0  0  0  0  0
   32.8040   38.5710   26.6140 C   0  0  0  0  0  0  0  0  0  0  0  0
   33.5450   40.0760   29.3750 H   0  0  0  0  0  0  0  0  0  0  0  0
   32.9190   41.0730   27.9540 H   0  0  0  0  0  0  0  0  0  0  0  0
   35.1560   40.8420   27.1510 H   0  0  0  0  0  0  0  0  0  0  0  0
   35.4600   39.3450   28.1010 H   0  0  0  0  0  0  0  0  0  0  0  0
   34.9330   38.0860   26.2130 H   0  0  0  0  0  0  0  0  0  0  0  0
   32.6790   37.4670   26.6580 H   0  0  0  0  0  0  0  0  0  0  0  0
   32.0700   39.0490   25.9310 H   0  0  0  0  0  0  0  0  0  0  0  0
  1  3  2  0  0  0  0
  1  7  1  0  0  0  0
  1 22  1  0  0  0  0
  2 12  1  0  0  0  0
  2 18  2  0  0  0  0
  2 19  1  0  0  0  0
  3 13  1  0  0  0  0
  3 15  1  0  0  0  0
  4 17  2  0  0  0  0
  4 20  1  0  0  0  0
  4 21  1  0  0  0  0
  5  6  1  0  0  0  0
  5 10  1  0  0  0  0
  5 11  2  0  0  0  0
  6 12  2  0  0  0  0
  6 23  1  0  0  0  0
  7  8  2  0  0  0  0
  7 31  1  0  0  0  0
  8  9  1  0  0  0  0
  8 24  1  0  0  0  0
  9 13  2  0  0  0  0
  9 25  1  0  0  0  0
 10 19  1  0  0  0  0
 10 20  2  0  0  0  0
 11 17  1  0  0  0  0
 11 26  1  0  0  0  0
 12 16  1  0  0  0  0
 13 16  1  0  0  0  0
 14 19  1  0  0  0  0
 14 27  1  0  0  0  0
 14 28  1  0  0  0  0
 14 29  1  0  0  0  0
 21 30  1  0  0  0  0
 21 35  1  0  0  0  0
 32 33  1  0  0  0  0
 32 36  1  0  0  0  0
 33 34  1  0  0  0  0
 33 37  1  0  0  0  0
 33 38  1  0  0  0  0
 34 35  1  0  0  0  0
 34 39  1  0  0  0  0
 34 40  1  0  0  0  0
 35 36  1  0  0  0  0
 35 41  1  1  0  0  0
 36 42  1  0  0  0  0
 36 43  1  0  0  0  0
M  END
$$$$
