18633-1
 OpenBabel02232411163D
Structure written by MMmdl.
 42 43  0  0  0  0  0  0  0  0999 V2000
   23.8260   12.6450   30.3560 C   0  0  0  0  0  0  0  0  0  0  0  0
   23.3880   11.1960   30.4500 C   0  0  0  0  0  0  0  0  0  0  0  0
   22.1460   11.2740   31.2620 O   0  0  0  0  0  0  0  0  0  0  0  0
   21.5230   10.1260   31.5990 C   0  0  0  0  0  0  0  0  0  0  0  0
   22.0110    8.9440   31.1540 N   0  0  0  0  0  0  0  0  0  0  0  0
   21.2950    7.7970   31.4680 C   0  0  0  0  0  0  0  0  0  0  0  0
   20.1440    7.8200   32.2490 C   0  0  0  0  0  0  0  0  0  0  0  0
   19.6440    9.0640   32.7190 C   0  0  0  0  0  0  0  0  0  0  0  0
   18.4970    9.0970   33.4700 N   0  0  0  0  0  0  0  0  0  0  0  0
   20.3390   10.2700   32.3830 C   0  0  0  0  0  0  0  0  0  0  0  0
   19.9070   11.5640   32.7400 C   0  0  0  0  0  0  0  0  0  0  0  0
   19.6010   12.6550   32.9910 N   0  0  0  0  0  0  0  0  0  0  0  0
   21.8650    6.6440   30.8790 N   0  0  0  0  0  0  0  0  0  0  0  0
   21.3020    5.3420   30.8330 C   0  0  0  0  0  0  0  0  0  0  0  0
   20.2760    5.0580   31.4140 O   0  0  0  0  0  0  0  0  0  0  0  0
   22.0710    4.3840   29.9360 C   0  0  0  0  0  0  0  0  0  0  0  0
   23.4030    3.9940   30.5120 C   0  0  0  0  0  0  0  0  0  0  0  0
   23.5020    2.8910   31.3850 C   0  0  0  0  0  0  0  0  0  0  0  0
   24.7250    2.5230   31.9300 C   0  0  0  0  0  0  0  0  0  0  0  0
   25.8790    3.2590   31.5780 C   0  0  0  0  0  0  0  0  0  0  0  0
   25.8060    4.3440   30.6990 C   0  0  0  0  0  0  0  0  0  0  0  0
   24.5610    4.7030   30.1720 C   0  0  0  0  0  0  0  0  0  0  0  0
   27.0200    2.7810   32.1800 O   0  0  0  0  0  0  0  0  0  0  0  0
   28.2840    3.4000   31.8240 C   0  0  0  0  0  0  0  0  0  0  0  0
   24.0870   13.0580   31.3560 H   0  0  0  0  0  0  0  0  0  0  0  0
   23.0240   13.2760   29.9040 H   0  0  0  0  0  0  0  0  0  0  0  0
   24.7280   12.7040   29.6960 H   0  0  0  0  0  0  0  0  0  0  0  0
   23.1150   10.7680   29.4590 H   0  0  0  0  0  0  0  0  0  0  0  0
   24.1220   10.5610   30.9940 H   0  0  0  0  0  0  0  0  0  0  0  0
   19.6070    6.9010   32.4910 H   0  0  0  0  0  0  0  0  0  0  0  0
   18.0030    8.2230   33.7340 H   0  0  0  0  0  0  0  0  0  0  0  0
   18.0900    9.9800   33.7800 H   0  0  0  0  0  0  0  0  0  0  0  0
   22.7610    6.8060   30.3760 H   0  0  0  0  0  0  0  0  0  0  0  0
   21.4470    3.4650   29.7820 H   0  0  0  0  0  0  0  0  0  0  0  0
   22.2160    4.8730   28.9360 H   0  0  0  0  0  0  0  0  0  0  0  0
   22.6120    2.3050   31.6330 H   0  0  0  0  0  0  0  0  0  0  0  0
   24.8010    1.6700   32.6100 H   0  0  0  0  0  0  0  0  0  0  0  0
   26.6880    4.9170   30.4060 H   0  0  0  0  0  0  0  0  0  0  0  0
   24.5200    5.5490   29.4790 H   0  0  0  0  0  0  0  0  0  0  0  0
   29.0060    2.8210   32.4480 H   0  0  0  0  0  0  0  0  0  0  0  0
   28.4890    3.2570   30.7400 H   0  0  0  0  0  0  0  0  0  0  0  0
   28.2820    4.4750   32.1040 H   0  0  0  0  0  0  0  0  0  0  0  0
  1  2  1  0  0  0  0
  1 25  1  0  0  0  0
  1 26  1  0  0  0  0
  1 27  1  0  0  0  0
  2  3  1  0  0  0  0
  2 28  1  0  0  0  0
  2 29  1  0  0  0  0
  3  4  1  0  0  0  0
  4 10  2  0  0  0  0
  4  5  1  0  0  0  0
  5  6  2  0  0  0  0
  6  7  1  0  0  0  0
  6 13  1  0  0  0  0
  7  8  2  0  0  0  0
  7 30  1  0  0  0  0
  8  9  1  0  0  0  0
  8 10  1  0  0  0  0
  9 31  1  0  0  0  0
  9 32  1  0  0  0  0
 10 11  1  0  0  0  0
 11 12  3  0  0  0  0
 13 14  1  0  0  0  0
 13 33  1  0  0  0  0
 14 15  2  0  0  0  0
 14 16  1  0  0  0  0
 16 17  1  0  0  0  0
 16 34  1  0  0  0  0
 16 35  1  0  0  0  0
 17 22  2  0  0  0  0
 17 18  1  0  0  0  0
 18 19  2  0  0  0  0
 18 36  1  0  0  0  0
 19 20  1  0  0  0  0
 19 37  1  0  0  0  0
 20 21  2  0  0  0  0
 20 23  1  0  0  0  0
 21 22  1  0  0  0  0
 21 38  1  0  0  0  0
 22 39  1  0  0  0  0
 23 24  1  0  0  0  0
 24 40  1  0  0  0  0
 24 41  1  0  0  0  0
 24 42  1  0  0  0  0
M  END
$$$$
