2m
                    3D
 Schrodinger Suite 2022-3.
 50 54  0  0  1  0  0  0  0  0999 V2000
   27.1290    8.9300   30.4650 C   0  0  0  0  0  0  0  0  0  0  0  0
   28.4880    9.5230   30.8590 C   0  0  0  0  0  0  0  0  0  0  0  0
   28.5510    8.2400   32.9080 C   0  0  0  0  0  0  0  0  0  0  0  0
   27.2120    7.5640   32.5920 C   0  0  0  0  0  0  0  0  0  0  0  0
   15.9040   10.4920   31.6780 C   0  0  0  0  0  0  0  0  0  0  0  0
   29.2470    8.6280   31.7030 O   0  0  0  0  0  0  0  0  0  0  0  0
   21.3030   12.5310   31.2990 C   0  0  0  0  0  0  0  0  0  0  0  0
   17.1950   10.9960   31.8090 C   0  0  0  0  0  0  0  0  0  0  0  0
   23.9260    8.4700   31.0680 C   0  0  0  0  0  0  0  0  0  0  0  0
   26.3510    8.5140   31.7330 C   0  0  0  0  0  0  0  0  0  0  0  0
   21.4920    9.7090   30.7240 C   0  0  0  0  0  0  0  0  0  0  0  0
   20.2110   10.3570   30.6640 C   0  0  0  0  0  0  0  0  0  0  0  0
   15.2260   10.7980   30.4920 C   0  0  0  0  0  0  0  0  0  0  0  0
   15.7810   11.5700   29.4690 C   0  0  0  0  0  0  0  0  0  0  0  0
   17.0730   12.0810   29.6300 C   0  0  0  0  0  0  0  0  0  0  0  0
   22.6400   10.4360   31.1550 C   0  0  0  0  0  0  0  0  0  0  0  0
   21.6850    8.3410   30.3930 C   0  0  0  0  0  0  0  0  0  0  0  0
   20.1330   11.6710   30.9730 C   0  0  0  0  0  0  0  0  0  0  0  0
   17.7730   11.8050   30.8090 C   0  0  0  0  0  0  0  0  0  0  0  0
   17.9090   10.7040   32.8880 F   0  0  0  0  0  0  0  0  0  0  0  0
   14.0010   10.3050   30.3240 F   0  0  0  0  0  0  0  0  0  0  0  0
   18.9880   12.4630   31.0330 O   0  0  0  0  0  0  0  0  0  0  0  0
   22.8580    7.7110   30.5470 N   0  0  0  0  0  0  0  0  0  0  0  0
   21.2640   13.7270   31.4780 O   0  0  0  0  0  0  0  0  0  0  0  0
   22.5510   11.8190   31.4100 N   0  0  0  0  0  0  0  0  0  0  0  0
   23.8520    9.8230   31.3330 N   0  0  0  0  0  0  0  0  0  0  0  0
   25.0880    7.7980   31.3780 N   0  0  0  0  0  0  0  0  0  0  0  0
   15.2310   11.7670   28.5470 H   0  0  0  0  0  0  0  0  0  0  0  0
   17.5280   12.6820   28.8360 H   0  0  0  0  0  0  0  0  0  0  0  0
   15.4610    9.8610   32.4490 H   0  0  0  0  0  0  0  0  0  0  0  0
   19.3450    9.7590   30.3780 H   0  0  0  0  0  0  0  0  0  0  0  0
   20.8470    7.7540   29.9820 H   0  0  0  0  0  0  0  0  0  0  0  0
   27.2760    8.0390   29.8130 H   0  0  0  0  0  0  0  0  0  0  0  0
   26.5530    9.6980   29.8960 H   0  0  0  0  0  0  0  0  0  0  0  0
   28.3580   10.4950   31.3890 H   0  0  0  0  0  0  0  0  0  0  0  0
   29.1580    9.6300   29.9760 H   0  0  0  0  0  0  0  0  0  0  0  0
   29.2650    7.5230   33.3750 H   0  0  0  0  0  0  0  0  0  0  0  0
   28.4020    9.1420   33.5460 H   0  0  0  0  0  0  0  0  0  0  0  0
   26.6810    7.3210   33.5440 H   0  0  0  0  0  0  0  0  0  0  0  0
   27.3920    6.6070   32.0420 H   0  0  0  0  0  0  0  0  0  0  0  0
   26.0920    9.4300   32.3330 H   0  0  0  0  0  0  0  0  0  0  0  0
   23.9640   12.3840   32.9180 H   0  0  0  0  0  0  0  0  0  0  0  0
   25.2140    6.8270   31.0280 H   0  0  0  0  0  0  0  0  0  0  0  0
   23.7730   12.5340   31.8380 C   0  0  0  0  0  0  0  0  0  0  0  0
   24.9740   12.6130   30.9000 C   0  0  0  0  0  0  0  0  0  0  0  0
   24.1620   13.8570   31.1930 C   0  0  0  0  0  0  0  0  0  0  0  0
   24.9310   12.1630   29.9000 H   0  0  0  0  0  0  0  0  0  0  0  0
   25.9750   12.4990   31.3460 H   0  0  0  0  0  0  0  0  0  0  0  0
   24.5970   14.6290   31.8490 H   0  0  0  0  0  0  0  0  0  0  0  0
   23.5560   14.2910   30.3880 H   0  0  0  0  0  0  0  0  0  0  0  0
  1  2  1  0  0  0  0
  1 10  1  0  0  0  0
  1 33  1  0  0  0  0
  1 34  1  0  0  0  0
  2  6  1  0  0  0  0
  2 35  1  0  0  0  0
  2 36  1  0  0  0  0
  3  4  1  0  0  0  0
  3  6  1  0  0  0  0
  3 37  1  0  0  0  0
  3 38  1  0  0  0  0
  4 10  1  0  0  0  0
  4 39  1  0  0  0  0
  4 40  1  0  0  0  0
  5  8  1  0  0  0  0
  5 13  2  0  0  0  0
  5 30  1  0  0  0  0
  7 18  1  0  0  0  0
  7 24  2  0  0  0  0
  7 25  1  0  0  0  0
  8 19  2  0  0  0  0
  8 20  1  0  0  0  0
  9 23  1  0  0  0  0
  9 26  2  0  0  0  0
  9 27  1  0  0  0  0
 10 27  1  0  0  0  0
 10 41  1  0  0  0  0
 11 12  1  0  0  0  0
 11 16  2  0  0  0  0
 11 17  1  0  0  0  0
 12 18  2  0  0  0  0
 12 31  1  0  0  0  0
 13 14  1  0  0  0  0
 13 21  1  0  0  0  0
 14 15  2  0  0  0  0
 14 28  1  0  0  0  0
 15 19  1  0  0  0  0
 15 29  1  0  0  0  0
 16 25  1  0  0  0  0
 16 26  1  0  0  0  0
 17 23  2  0  0  0  0
 17 32  1  0  0  0  0
 18 22  1  0  0  0  0
 19 22  1  0  0  0  0
 25 44  1  0  0  0  0
 27 43  1  0  0  0  0
 42 44  1  0  0  0  0
 44 45  1  0  0  0  0
 44 46  1  0  0  0  0
 45 46  1  0  0  0  0
 45 47  1  0  0  0  0
 45 48  1  0  0  0  0
 46 49  1  0  0  0  0
 46 50  1  0  0  0  0
M  END
$$$$
