CAT-4k
 OpenBabel02232411143D
Structure written by MMmdl.
 45 48  0  0  1  0  0  0  0  0999 V2000
   11.5170   -2.5820    1.4750 C   0  0  0  0  0  0  0  0  0  0  0  0
   12.8500   -2.5980    0.8380 N   0  0  0  0  0  0  0  0  0  0  0  0
   14.0530   -2.5010    1.5320 C   0  0  0  0  0  0  0  0  0  0  0  0
   14.2400   -2.4880    2.8780 N   0  0  0  0  0  0  0  0  0  0  0  0
   15.1210   -2.4830    0.6290 N   0  3  0  0  0  0  0  0  0  0  0  0
   14.6530   -3.0130   -0.7150 C   0  0  2  0  0  0  0  0  0  0  0  0
   15.0310   -4.4830   -0.7050 C   0  0  0  0  0  0  0  0  0  0  0  0
   14.0800   -5.4770   -0.4240 C   0  0  0  0  0  0  0  0  0  0  0  0
   14.4920   -6.7890   -0.1740 C   0  0  0  0  0  0  0  0  0  0  0  0
   15.8500   -7.1240   -0.2280 C   0  0  0  0  0  0  0  0  0  0  0  0
   16.7960   -6.1390   -0.5310 C   0  0  0  0  0  0  0  0  0  0  0  0
   16.3910   -4.8230   -0.7650 C   0  0  0  0  0  0  0  0  0  0  0  0
   15.1410   -2.1040   -1.8210 C   0  0  0  0  0  0  0  0  0  0  0  0
   15.5640   -2.6280   -3.0450 C   0  0  0  0  0  0  0  0  0  0  0  0
   15.9400   -1.7510   -4.0680 C   0  0  0  0  0  0  0  0  0  0  0  0
   15.9020   -0.3690   -3.8820 C   0  0  0  0  0  0  0  0  0  0  0  0
   15.4630    0.1660   -2.6570 C   0  0  0  0  0  0  0  0  0  0  0  0
   15.3760    1.6330   -2.4650 C   0  0  0  0  0  0  0  0  0  0  0  0
   15.7160    2.2220   -1.2370 C   0  0  0  0  0  0  0  0  0  0  0  0
   15.5880    3.6110   -1.0810 C   0  0  0  0  0  0  0  0  0  0  0  0
   15.1560    4.4240   -2.0810 N   0  0  0  0  0  0  0  0  0  0  0  0
   14.8370    3.8520   -3.2730 C   0  0  0  0  0  0  0  0  0  0  0  0
   14.9310    2.4690   -3.5010 C   0  0  0  0  0  0  0  0  0  0  0  0
   15.0880   -0.7110   -1.6310 C   0  0  0  0  0  0  0  0  0  0  0  0
   13.1030   -2.8300   -0.6030 C   0  0  0  0  0  0  0  0  0  0  0  0
   12.2310   -2.8250   -1.4100 O   0  0  0  0  0  0  0  0  0  0  0  0
   11.0500   -1.5710    1.3370 H   0  0  0  0  0  0  0  0  0  0  0  0
   10.8700   -3.3670    0.9950 H   0  0  0  0  0  0  0  0  0  0  0  0
   11.5940   -2.8120    2.5700 H   0  0  0  0  0  0  0  0  0  0  0  0
   15.2270   -2.3750    3.2490 H   0  0  0  0  0  0  0  0  0  0  0  0
   16.0780   -2.7550    0.9840 H   0  0  0  0  0  0  0  0  0  0  0  0
   13.0140   -5.2520   -0.3730 H   0  0  0  0  0  0  0  0  0  0  0  0
   13.7440   -7.5500    0.0690 H   0  0  0  0  0  0  0  0  0  0  0  0
   16.1570   -8.1550   -0.0220 H   0  0  0  0  0  0  0  0  0  0  0  0
   17.8640   -6.3710   -0.5260 H   0  0  0  0  0  0  0  0  0  0  0  0
   17.1330   -4.0420   -0.9480 H   0  0  0  0  0  0  0  0  0  0  0  0
   15.6010   -3.7080   -3.1980 H   0  0  0  0  0  0  0  0  0  0  0  0
   16.2660   -2.1460   -5.0290 H   0  0  0  0  0  0  0  0  0  0  0  0
   16.2220    0.2900   -4.6980 H   0  0  0  0  0  0  0  0  0  0  0  0
   16.0660    1.6090   -0.4050 H   0  0  0  0  0  0  0  0  0  0  0  0
   15.8330    4.0820   -0.1170 H   0  0  0  0  0  0  0  0  0  0  0  0
   14.4850    4.5240   -4.0740 H   0  0  0  0  0  0  0  0  0  0  0  0
   14.6500    2.0580   -4.4750 H   0  0  0  0  0  0  0  0  0  0  0  0
   14.7550   -0.3170   -0.6690 H   0  0  0  0  0  0  0  0  0  0  0  0
   13.5290   -2.0790    3.5310 H   0  0  0  0  0  0  0  0  0  0  0  0
  1  2  1  0  0  0  0
  1 27  1  0  0  0  0
  1 28  1  0  0  0  0
  1 29  1  0  0  0  0
  2  3  1  0  0  0  0
  2 25  1  0  0  0  0
  3  4  1  0  0  0  0
  3  5  2  0  0  0  0
  4 30  1  0  0  0  0
  4 45  1  0  0  0  0
  5  6  1  0  0  0  0
  5 31  1  0  0  0  0
  6  7  1  6  0  0  0
  6 13  1  0  0  0  0
  6 25  1  0  0  0  0
  7  8  2  0  0  0  0
  7 12  1  0  0  0  0
  8  9  1  0  0  0  0
  8 32  1  0  0  0  0
  9 10  2  0  0  0  0
  9 33  1  0  0  0  0
 10 11  1  0  0  0  0
 10 34  1  0  0  0  0
 11 12  2  0  0  0  0
 11 35  1  0  0  0  0
 12 36  1  0  0  0  0
 13 14  2  0  0  0  0
 13 24  1  0  0  0  0
 14 15  1  0  0  0  0
 14 37  1  0  0  0  0
 15 16  2  0  0  0  0
 15 38  1  0  0  0  0
 16 17  1  0  0  0  0
 16 39  1  0  0  0  0
 17 18  1  0  0  0  0
 17 24  2  0  0  0  0
 18 19  2  0  0  0  0
 18 23  1  0  0  0  0
 19 20  1  0  0  0  0
 19 40  1  0  0  0  0
 20 21  2  0  0  0  0
 20 41  1  0  0  0  0
 21 22  1  0  0  0  0
 22 23  2  0  0  0  0
 22 42  1  0  0  0  0
 23 43  1  0  0  0  0
 24 44  1  0  0  0  0
 25 26  2  0  0  0  0
M  CHG  1   5   1
M  END
$$$$
