p38a_2z
 OpenBabel02232411163D
Structure written by MMmdl.
 45 47  0  0  0  0  0  0  0  0999 V2000
   36.3790   36.0720   15.7890 C   0  0  0  0  0  0  0  0  0  0  0  0
   34.4560   34.9700   21.2230 C   0  0  0  0  0  0  0  0  0  0  0  0
   35.7380   35.5850   16.9240 C   0  0  0  0  0  0  0  0  0  0  0  0
   33.9680   38.9560   23.9280 C   0  0  0  0  0  0  0  0  0  0  0  0
   32.9040   38.9820   26.2650 C   0  0  0  0  0  0  0  0  0  0  0  0
   34.7950   37.8110   21.5480 C   0  0  0  0  0  0  0  0  0  0  0  0
   35.3100   37.1710   20.3670 C   0  0  0  0  0  0  0  0  0  0  0  0
   37.6710   36.5820   15.9730 C   0  0  0  0  0  0  0  0  0  0  0  0
   38.3280   36.5890   17.2060 C   0  0  0  0  0  0  0  0  0  0  0  0
   37.6490   36.1280   18.3400 C   0  0  0  0  0  0  0  0  0  0  0  0
   34.1820   37.0370   22.5760 C   0  0  0  0  0  0  0  0  0  0  0  0
   34.8780   39.2120   21.7720 C   0  0  0  0  0  0  0  0  0  0  0  0
   35.1780   35.8300   20.2460 C   0  0  0  0  0  0  0  0  0  0  0  0
   36.3520   35.6280   18.1930 C   0  0  0  0  0  0  0  0  0  0  0  0
   33.3070   34.8760   23.4670 C   0  0  0  0  0  0  0  0  0  0  0  0
   34.5280   35.0510   16.8380 F   0  0  0  0  0  0  0  0  0  0  0  0
   35.6430   35.0030   19.2260 O   0  0  0  0  0  0  0  0  0  0  0  0
   34.4860   39.7950   22.9140 N   0  0  0  0  0  0  0  0  0  0  0  0
   34.2430   33.7850   21.0850 O   0  0  0  0  0  0  0  0  0  0  0  0
   33.9950   35.6550   22.4000 N   0  0  0  0  0  0  0  0  0  0  0  0
   33.7600   37.6040   23.7530 N   0  0  0  0  0  0  0  0  0  0  0  0
   33.7390   39.5540   25.1500 N   0  0  0  0  0  0  0  0  0  0  0  0
   35.8940   36.0770   14.8110 H   0  0  0  0  0  0  0  0  0  0  0  0
   33.2350   37.5190   26.5750 C   0  0  0  0  0  0  0  0  0  0  0  0
   35.8010   37.7940   19.6150 H   0  0  0  0  0  0  0  0  0  0  0  0
   39.3470   36.9750   17.2960 H   0  0  0  0  0  0  0  0  0  0  0  0
   38.1290   36.1840   19.3190 H   0  0  0  0  0  0  0  0  0  0  0  0
   35.2720   39.8680   20.9790 H   0  0  0  0  0  0  0  0  0  0  0  0
   33.8880   34.9410   24.4260 H   0  0  0  0  0  0  0  0  0  0  0  0
   32.2790   35.2940   23.6450 H   0  0  0  0  0  0  0  0  0  0  0  0
   33.2150   33.8000   23.1660 H   0  0  0  0  0  0  0  0  0  0  0  0
   33.7860   40.6000   25.1770 H   0  0  0  0  0  0  0  0  0  0  0  0
   38.2850   37.1170   14.9200 F   0  0  0  0  0  0  0  0  0  0  0  0
   33.1910   39.8580   27.5360 C   0  0  0  0  0  0  0  0  0  0  0  0
   31.4160   39.1470   25.8950 C   0  0  0  0  0  0  0  0  0  0  0  0
   34.5350   39.7370   28.0100 O   0  0  0  0  0  0  0  0  0  0  0  0
   34.7040   38.8010   28.2880 H   0  0  0  0  0  0  0  0  0  0  0  0
   33.1030   40.9470   27.3200 H   0  0  0  0  0  0  0  0  0  0  0  0
   32.4850   39.5680   28.3490 H   0  0  0  0  0  0  0  0  0  0  0  0
   30.7700   38.8200   26.7410 H   0  0  0  0  0  0  0  0  0  0  0  0
   31.1880   40.2080   25.6500 H   0  0  0  0  0  0  0  0  0  0  0  0
   31.1570   38.5170   25.0140 H   0  0  0  0  0  0  0  0  0  0  0  0
   32.8400   37.2420   27.5810 H   0  0  0  0  0  0  0  0  0  0  0  0
   32.7480   36.8370   25.8340 H   0  0  0  0  0  0  0  0  0  0  0  0
   34.3300   37.3280   26.5450 H   0  0  0  0  0  0  0  0  0  0  0  0
  1  3  2  0  0  0  0
  1  8  1  0  0  0  0
  1 23  1  0  0  0  0
  2 13  1  0  0  0  0
  2 19  2  0  0  0  0
  2 20  1  0  0  0  0
  3 14  1  0  0  0  0
  3 16  1  0  0  0  0
  4 18  2  0  0  0  0
  4 21  1  0  0  0  0
  4 22  1  0  0  0  0
  5 22  1  0  0  0  0
  5 24  1  0  0  0  0
  5 34  1  0  0  0  0
  5 35  1  0  0  0  0
  6  7  1  0  0  0  0
  6 11  1  0  0  0  0
  6 12  2  0  0  0  0
  7 13  2  0  0  0  0
  7 25  1  0  0  0  0
  8  9  2  0  0  0  0
  8 33  1  0  0  0  0
  9 10  1  0  0  0  0
  9 26  1  0  0  0  0
 10 14  2  0  0  0  0
 10 27  1  0  0  0  0
 11 20  1  0  0  0  0
 11 21  2  0  0  0  0
 12 18  1  0  0  0  0
 12 28  1  0  0  0  0
 13 17  1  0  0  0  0
 14 17  1  0  0  0  0
 15 20  1  0  0  0  0
 15 29  1  0  0  0  0
 15 30  1  0  0  0  0
 15 31  1  0  0  0  0
 22 32  1  0  0  0  0
 24 43  1  0  0  0  0
 24 44  1  0  0  0  0
 24 45  1  0  0  0  0
 34 36  1  0  0  0  0
 34 38  1  0  0  0  0
 34 39  1  0  0  0  0
 35 40  1  0  0  0  0
 35 41  1  0  0  0  0
 35 42  1  0  0  0  0
 36 37  1  0  0  0  0
M  END
$$$$
