p38a_2u
 OpenBabel02232411163D
Structure written by MMmdl.
 64 68  0  0  0  0  0  0  0  0999 V2000
   38.2990   36.5420   17.1620 C   0  0  0  0  0  0  0  0  0  0  0  0
   34.5730   35.0870   21.2530 C   0  0  0  0  0  0  0  0  0  0  0  0
   37.5240   36.0870   18.2260 C   0  0  0  0  0  0  0  0  0  0  0  0
   34.0190   39.1690   23.7940 C   0  0  0  0  0  0  0  0  0  0  0  0
   34.6640   37.9490   21.4120 C   0  0  0  0  0  0  0  0  0  0  0  0
   35.0640   37.3040   20.1930 C   0  0  0  0  0  0  0  0  0  0  0  0
   37.6440   36.6900   15.9320 C   0  0  0  0  0  0  0  0  0  0  0  0
   36.2950   36.3830   15.7350 C   0  0  0  0  0  0  0  0  0  0  0  0
   35.5410   35.9170   16.8170 C   0  0  0  0  0  0  0  0  0  0  0  0
   34.3000   37.1780   22.5590 C   0  0  0  0  0  0  0  0  0  0  0  0
   34.6280   39.3650   21.5430 C   0  0  0  0  0  0  0  0  0  0  0  0
   35.0620   35.9530   20.1490 C   0  0  0  0  0  0  0  0  0  0  0  0
   36.1610   35.7630   18.0600 C   0  0  0  0  0  0  0  0  0  0  0  0
   38.0640   35.9610   19.4310 F   0  0  0  0  0  0  0  0  0  0  0  0
   35.4520   35.1330   19.0910 O   0  0  0  0  0  0  0  0  0  0  0  0
   34.3210   39.9900   22.6880 N   0  0  0  0  0  0  0  0  0  0  0  0
   34.4460   33.8830   21.1770 O   0  0  0  0  0  0  0  0  0  0  0  0
   34.2380   35.7710   22.4790 N   0  0  0  0  0  0  0  0  0  0  0  0
   34.0120   37.7880   23.7500 N   0  0  0  0  0  0  0  0  0  0  0  0
   33.6520   39.7920   24.9640 N   0  0  0  0  0  0  0  0  0  0  0  0
   39.3530   36.8060   17.2890 H   0  0  0  0  0  0  0  0  0  0  0  0
   35.3670   37.9290   19.3510 H   0  0  0  0  0  0  0  0  0  0  0  0
   35.8180   36.5170   14.7610 H   0  0  0  0  0  0  0  0  0  0  0  0
   34.4760   35.6960   16.6870 H   0  0  0  0  0  0  0  0  0  0  0  0
   34.8560   39.9990   20.6700 H   0  0  0  0  0  0  0  0  0  0  0  0
   33.7550   40.8220   25.0490 H   0  0  0  0  0  0  0  0  0  0  0  0
   38.3330   37.1870   14.9080 F   0  0  0  0  0  0  0  0  0  0  0  0
   32.3860   39.1020   28.5010 C   0  0  0  0  0  0  0  0  0  0  0  0
   32.4610   39.7690   27.1210 C   0  0  0  0  0  0  0  0  0  0  0  0
   33.5120   39.0470   26.2520 C   0  0  0  0  0  0  0  0  0  0  0  0
   34.8700   38.9860   26.9860 C   0  0  0  0  0  0  0  0  0  0  0  0
   34.6780   38.3520   28.3690 C   0  0  0  0  0  0  0  0  0  0  0  0
   33.6790   39.0550   29.1440 O   0  0  0  0  0  0  0  0  0  0  0  0
   31.9810   38.0660   28.4130 H   0  0  0  0  0  0  0  0  0  0  0  0
   31.7880   39.7170   29.2110 H   0  0  0  0  0  0  0  0  0  0  0  0
   32.7350   40.8440   27.2380 H   0  0  0  0  0  0  0  0  0  0  0  0
   31.4640   39.7120   26.6220 H   0  0  0  0  0  0  0  0  0  0  0  0
   33.1490   38.0030   26.0310 H   0  0  0  0  0  0  0  0  0  0  0  0
   35.5860   38.3680   26.3940 H   0  0  0  0  0  0  0  0  0  0  0  0
   35.2880   40.0150   27.0880 H   0  0  0  0  0  0  0  0  0  0  0  0
   34.3770   37.2830   28.2690 H   0  0  0  0  0  0  0  0  0  0  0  0
   35.5900   38.4700   28.9970 H   0  0  0  0  0  0  0  0  0  0  0  0
   31.7120   34.2530   24.9910 C   0  0  0  0  0  0  0  0  0  0  0  0
   32.2540   35.2630   23.9570 C   0  0  0  0  0  0  0  0  0  0  0  0
   33.7120   34.9180   23.6120 C   0  0  0  0  0  0  0  0  0  0  0  0
   34.5650   34.9990   24.8890 C   0  0  0  0  0  0  0  0  0  0  0  0
   34.0360   33.9670   25.9110 C   0  0  0  0  0  0  0  0  0  0  0  0
   31.5910   33.2510   24.5010 H   0  0  0  0  0  0  0  0  0  0  0  0
   30.7000   34.6350   25.3020 H   0  0  0  0  0  0  0  0  0  0  0  0
   32.1860   36.2880   24.4020 H   0  0  0  0  0  0  0  0  0  0  0  0
   31.6020   35.2260   23.0560 H   0  0  0  0  0  0  0  0  0  0  0  0
   33.7420   33.8520   23.2330 H   0  0  0  0  0  0  0  0  0  0  0  0
   35.6330   34.7780   24.6690 H   0  0  0  0  0  0  0  0  0  0  0  0
   34.4940   36.0200   25.3420 H   0  0  0  0  0  0  0  0  0  0  0  0
   34.2200   32.9330   25.5140 H   0  0  0  0  0  0  0  0  0  0  0  0
   34.6010   34.1210   26.8690 H   0  0  0  0  0  0  0  0  0  0  0  0
   32.5790   34.1700   26.2060 N   0  0  0  0  0  0  0  0  0  0  0  0
   31.9600   33.3010   27.5680 S   0  0  0  0  0  0  0  0  0  0  0  0
   32.3250   34.0470   28.7870 O   0  0  0  0  0  0  0  0  0  0  0  0
   32.5360   31.9410   27.5790 O   0  0  0  0  0  0  0  0  0  0  0  0
   30.2370   33.2060   27.4060 C   0  0  0  0  0  0  0  0  0  0  0  0
   29.7370   34.2150   27.3920 H   0  0  0  0  0  0  0  0  0  0  0  0
   29.9090   32.6630   26.4830 H   0  0  0  0  0  0  0  0  0  0  0  0
   29.7770   32.6510   28.2680 H   0  0  0  0  0  0  0  0  0  0  0  0
  1  3  2  0  0  0  0
  1  7  1  0  0  0  0
  1 21  1  0  0  0  0
  2 12  1  0  0  0  0
  2 17  2  0  0  0  0
  2 18  1  0  0  0  0
  3 13  1  0  0  0  0
  3 14  1  0  0  0  0
  4 16  2  0  0  0  0
  4 19  1  0  0  0  0
  4 20  1  0  0  0  0
  5  6  1  0  0  0  0
  5 10  1  0  0  0  0
  5 11  2  0  0  0  0
  6 12  2  0  0  0  0
  6 22  1  0  0  0  0
  7  8  2  0  0  0  0
  7 27  1  0  0  0  0
  8  9  1  0  0  0  0
  8 23  1  0  0  0  0
  9 13  2  0  0  0  0
  9 24  1  0  0  0  0
 10 18  1  0  0  0  0
 10 19  2  0  0  0  0
 11 16  1  0  0  0  0
 11 25  1  0  0  0  0
 12 15  1  0  0  0  0
 13 15  1  0  0  0  0
 18 45  1  0  0  0  0
 20 26  1  0  0  0  0
 20 30  1  0  0  0  0
 28 29  1  0  0  0  0
 28 33  1  0  0  0  0
 28 34  1  0  0  0  0
 28 35  1  0  0  0  0
 29 30  1  0  0  0  0
 29 36  1  0  0  0  0
 29 37  1  0  0  0  0
 30 31  1  0  0  0  0
 30 38  1  0  0  0  0
 31 32  1  0  0  0  0
 31 39  1  0  0  0  0
 31 40  1  0  0  0  0
 32 33  1  0  0  0  0
 32 41  1  0  0  0  0
 32 42  1  0  0  0  0
 43 44  1  0  0  0  0
 43 48  1  0  0  0  0
 43 49  1  0  0  0  0
 43 57  1  0  0  0  0
 44 45  1  0  0  0  0
 44 50  1  0  0  0  0
 44 51  1  0  0  0  0
 45 46  1  0  0  0  0
 45 52  1  0  0  0  0
 46 47  1  0  0  0  0
 46 53  1  0  0  0  0
 46 54  1  0  0  0  0
 47 55  1  0  0  0  0
 47 56  1  0  0  0  0
 47 57  1  0  0  0  0
 57 58  1  0  0  0  0
 58 59  2  0  0  0  0
 58 60  2  0  0  0  0
 58 61  1  0  0  0  0
 61 62  1  0  0  0  0
 61 63  1  0  0  0  0
 61 64  1  0  0  0  0
M  END
$$$$
