49 flip
                    3D
 Schrodinger Suite 2022-3.
 41 43  0  0  1  0  0  0  0  0999 V2000
    3.7330  -48.6610    7.3940 O   0  0  0  0  0  0  0  0  0  0  0  0
    3.3430  -49.6300    6.7320 C   0  0  0  0  0  0  0  0  0  0  0  0
    4.0440  -50.4530    6.1150 O   0  5  0  0  0  0  0  0  0  0  0  0
    1.8220  -49.8740    6.6560 C   0  0  0  0  0  0  0  0  0  0  0  0
   -0.0930  -51.1010    6.8760 C   0  0  0  0  0  0  0  0  0  0  0  0
   -1.0580  -52.0890    7.1470 C   0  0  0  0  0  0  0  0  0  0  0  0
   -2.3750  -51.8170    6.8150 C   0  0  0  0  0  0  0  0  0  0  0  0
   -2.7440  -50.5860    6.2210 C   0  0  0  0  0  0  0  0  0  0  0  0
   -1.7810  -49.6260    5.9650 C   0  0  0  0  0  0  0  0  0  0  0  0
   -0.4280  -49.8270    6.2780 C   0  0  0  0  0  0  0  0  0  0  0  0
    0.7970  -49.0680    6.1670 C   0  0  0  0  0  0  0  0  0  0  0  0
    0.9330  -47.6830    5.6380 C   0  0  0  0  0  0  0  0  0  0  0  0
    0.8250  -46.6030    6.7310 C   0  0  0  0  0  0  0  0  0  0  0  0
   -0.5130  -46.5500    7.4620 C   0  0  0  0  0  0  0  0  0  0  0  0
   -1.4130  -45.8100    6.5510 O   0  0  0  0  0  0  0  0  0  0  0  0
   -2.6950  -45.5990    6.9510 C   0  0  0  0  0  0  0  0  0  0  0  0
   -3.2550  -46.0710    8.1500 C   0  0  0  0  0  0  0  0  0  0  0  0
   -4.5810  -45.7520    8.4750 C   0  0  0  0  0  0  0  0  0  0  0  0
   -5.1910  -46.2570    9.7390 C   0  0  0  0  0  0  0  0  0  0  0  0
   -5.3130  -44.9550    7.5820 C   0  0  0  0  0  0  0  0  0  0  0  0
   -6.9570  -44.5590    7.9480 Cl  0  0  0  0  0  0  0  0  0  0  0  0
   -4.7670  -44.4850    6.3810 C   0  0  0  0  0  0  0  0  0  0  0  0
   -3.4600  -44.8140    6.0510 C   0  0  0  0  0  0  0  0  0  0  0  0
   -0.7820  -53.0390    7.6060 H   0  0  0  0  0  0  0  0  0  0  0  0
   -3.1520  -52.5580    7.0130 H   0  0  0  0  0  0  0  0  0  0  0  0
   -3.7930  -50.4100    5.9760 H   0  0  0  0  0  0  0  0  0  0  0  0
   -2.2660  -48.1380    5.2360 Cl  0  0  0  0  0  0  0  0  0  0  0  0
    0.1500  -47.4780    4.8670 H   0  0  0  0  0  0  0  0  0  0  0  0
    1.9310  -47.5650    5.1440 H   0  0  0  0  0  0  0  0  0  0  0  0
    0.9950  -45.6050    6.2610 H   0  0  0  0  0  0  0  0  0  0  0  0
    1.6140  -46.8030    7.4980 H   0  0  0  0  0  0  0  0  0  0  0  0
   -0.4520  -45.9420    8.3890 H   0  0  0  0  0  0  0  0  0  0  0  0
   -0.9550  -47.5550    7.6300 H   0  0  0  0  0  0  0  0  0  0  0  0
   -2.6940  -46.7020    8.8350 H   0  0  0  0  0  0  0  0  0  0  0  0
   -5.7690  -45.4570   10.2590 H   0  0  0  0  0  0  0  0  0  0  0  0
   -5.8940  -47.0960    9.5070 H   0  0  0  0  0  0  0  0  0  0  0  0
   -4.4140  -46.6470   10.4380 H   0  0  0  0  0  0  0  0  0  0  0  0
   -3.0310  -44.4700    5.1140 H   0  0  0  0  0  0  0  0  0  0  0  0
   -5.3700  -43.8740    5.7030 H   0  0  0  0  0  0  0  0  0  0  0  0
    1.2890  -51.1000    7.0960 N   0  0  0  0  0  0  0  0  0  0  0  0
    1.7870  -51.8860    7.4990 H   0  0  0  0  0  0  0  0  0  0  0  0
  1  2  2  0  0  0  0
  2  3  1  0  0  0  0
  2  4  1  0  0  0  0
  4 11  2  0  0  0  0
  4 40  1  0  0  0  0
  5  6  1  0  0  0  0
  5 10  2  0  0  0  0
  5 40  1  0  0  0  0
  6  7  2  0  0  0  0
  6 24  1  0  0  0  0
  7  8  1  0  0  0  0
  7 25  1  0  0  0  0
  8  9  2  0  0  0  0
  8 26  1  0  0  0  0
  9 10  1  0  0  0  0
  9 27  1  0  0  0  0
 10 11  1  0  0  0  0
 11 12  1  0  0  0  0
 12 28  1  0  0  0  0
 12 29  1  0  0  0  0
 12 13  1  0  0  0  0
 13 14  1  0  0  0  0
 13 30  1  0  0  0  0
 13 31  1  0  0  0  0
 14 15  1  0  0  0  0
 14 32  1  0  0  0  0
 14 33  1  0  0  0  0
 15 16  1  0  0  0  0
 16 17  1  0  0  0  0
 16 23  2  0  0  0  0
 17 18  2  0  0  0  0
 17 34  1  0  0  0  0
 18 19  1  0  0  0  0
 18 20  1  0  0  0  0
 19 35  1  0  0  0  0
 19 36  1  0  0  0  0
 19 37  1  0  0  0  0
 20 21  1  0  0  0  0
 20 22  2  0  0  0  0
 22 23  1  0  0  0  0
 22 39  1  0  0  0  0
 23 38  1  0  0  0  0
 40 41  1  0  0  0  0
M  CHG  1   3  -1
M  END
$$$$
