23483
 OpenBabel02232411173D
Structure written by MMmdl.
 57 60  0  0  0  0  0  0  0  0999 V2000
   42.3300   18.0510   12.6660 O   0  0  0  0  0  0  0  0  0  0  0  0
   41.1920   17.7460   13.0410 C   0  0  0  0  0  0  0  0  0  0  0  0
   40.1300   18.3440   12.7630 O   0  5  0  0  0  0  0  0  0  0  0  0
   41.0240   16.4930   13.9510 C   0  0  0  0  0  0  0  0  0  0  0  0
   42.3830   15.9520   13.9230 O   0  0  0  0  0  0  0  0  0  0  0  0
   42.6240   14.9970   14.8580 C   0  0  0  0  0  0  0  0  0  0  0  0
   42.0490   13.6700   14.8130 C   0  0  0  0  0  0  0  0  0  0  0  0
   40.8670   13.1530   13.4100 Br  0  0  0  0  0  0  0  0  0  0  0  0
   42.4710   12.8290   15.8090 C   0  0  0  0  0  0  0  0  0  0  0  0
   42.0550   11.4730   16.1040 C   0  0  0  0  0  0  0  0  0  0  0  0
   42.9260   10.5140   16.6690 C   0  0  0  0  0  0  0  0  0  0  0  0
   42.4820    9.2100   16.8630 C   0  0  0  0  0  0  0  0  0  0  0  0
   41.2030    8.7940   16.4610 C   0  0  0  0  0  0  0  0  0  0  0  0
   40.3260    9.7390   15.9130 C   0  0  0  0  0  0  0  0  0  0  0  0
   38.9660    9.4740   15.5430 N   0  0  0  0  0  0  0  0  0  0  0  0
   38.5410    8.1100   15.1340 C   0  0  0  0  0  0  0  0  0  0  0  0
   37.0090    8.0160   15.3520 C   0  0  0  0  0  0  0  0  0  0  0  0
   36.4980    6.6240   14.9400 C   0  0  0  0  0  0  0  0  0  0  0  0
   36.8140    6.3710   13.4990 N   0  0  0  0  0  0  0  0  0  0  0  0
   35.8340    5.2640   12.6630 S   0  0  0  0  0  0  0  0  0  0  0  0
   34.7890    4.7510   13.5530 O   0  0  0  0  0  0  0  0  0  0  0  0
   35.3130    5.9700   11.4780 O   0  0  0  0  0  0  0  0  0  0  0  0
   36.7900    3.9190   12.1030 C   0  0  0  0  0  0  0  0  0  0  0  0
   36.5440    3.3850   10.8340 C   0  0  0  0  0  0  0  0  0  0  0  0
   37.2640    2.2720   10.3820 C   0  0  0  0  0  0  0  0  0  0  0  0
   38.2330    1.6860   11.2010 C   0  0  0  0  0  0  0  0  0  0  0  0
   38.4700    2.2100   12.4770 C   0  0  0  0  0  0  0  0  0  0  0  0
   37.7440    3.3140   12.9300 C   0  0  0  0  0  0  0  0  0  0  0  0
   38.2860    6.4320   13.2420 C   0  0  0  0  0  0  0  0  0  0  0  0
   38.8420    7.8130   13.6390 C   0  0  0  0  0  0  0  0  0  0  0  0
   40.7440   11.0840   15.7990 C   0  0  0  0  0  0  0  0  0  0  0  0
   43.6560   13.6710   16.7760 S   0  0  0  0  0  0  0  0  0  0  0  0
   43.5420   15.1590   15.8650 C   0  0  0  0  0  0  0  0  0  0  0  0
   44.3850   16.3730   16.2580 C   0  0  0  0  0  0  0  0  0  0  0  0
   45.0320   16.2410   17.3230 O   0  0  0  0  0  0  0  0  0  0  0  0
   44.4040   17.3500   15.5110 O   0  5  0  0  0  0  0  0  0  0  0  0
   40.3140   15.7650   13.5100 H   0  0  0  0  0  0  0  0  0  0  0  0
   40.7230   16.7540   14.9860 H   0  0  0  0  0  0  0  0  0  0  0  0
   43.9480   10.7700   16.9500 H   0  0  0  0  0  0  0  0  0  0  0  0
   43.1440    8.4720   17.3200 H   0  0  0  0  0  0  0  0  0  0  0  0
   40.9230    7.7490   16.5770 H   0  0  0  0  0  0  0  0  0  0  0  0
   38.6070   10.1670   14.8460 H   0  0  0  0  0  0  0  0  0  0  0  0
   39.0430    7.3370   15.7690 H   0  0  0  0  0  0  0  0  0  0  0  0
   36.7760    8.1700   16.4310 H   0  0  0  0  0  0  0  0  0  0  0  0
   36.4950    8.7940   14.7430 H   0  0  0  0  0  0  0  0  0  0  0  0
   36.9860    5.8430   15.5890 H   0  0  0  0  0  0  0  0  0  0  0  0
   35.3910    6.5880   15.0940 H   0  0  0  0  0  0  0  0  0  0  0  0
   35.7790    3.8130   10.1770 H   0  0  0  0  0  0  0  0  0  0  0  0
   37.0670    1.8470    9.3950 H   0  0  0  0  0  0  0  0  0  0  0  0
   38.7990    0.8180   10.8540 H   0  0  0  0  0  0  0  0  0  0  0  0
   39.2270    1.7530   13.1210 H   0  0  0  0  0  0  0  0  0  0  0  0
   37.9410    3.6770   13.9470 H   0  0  0  0  0  0  0  0  0  0  0  0
   38.8310    5.6540   13.8500 H   0  0  0  0  0  0  0  0  0  0  0  0
   38.4850    6.2480   12.1590 H   0  0  0  0  0  0  0  0  0  0  0  0
   38.3780    8.6020   13.0060 H   0  0  0  0  0  0  0  0  0  0  0  0
   39.9450    7.8010   13.4820 H   0  0  0  0  0  0  0  0  0  0  0  0
   40.0100   11.8200   15.4700 H   0  0  0  0  0  0  0  0  0  0  0  0
  1  2  2  0  0  0  0
  2  3  1  0  0  0  0
  2  4  1  0  0  0  0
  4  5  1  0  0  0  0
  4 37  1  0  0  0  0
  4 38  1  0  0  0  0
  5  6  1  0  0  0  0
  6 33  2  0  0  0  0
  6  7  1  0  0  0  0
  7  8  1  0  0  0  0
  7  9  2  0  0  0  0
  9 10  1  0  0  0  0
  9 32  1  0  0  0  0
 10 31  2  0  0  0  0
 10 11  1  0  0  0  0
 11 12  2  0  0  0  0
 11 39  1  0  0  0  0
 12 13  1  0  0  0  0
 12 40  1  0  0  0  0
 13 14  2  0  0  0  0
 13 41  1  0  0  0  0
 14 15  1  0  0  0  0
 14 31  1  0  0  0  0
 15 16  1  0  0  0  0
 15 42  1  0  0  0  0
 16 30  1  0  0  0  0
 16 17  1  0  0  0  0
 16 43  1  0  0  0  0
 17 18  1  0  0  0  0
 17 44  1  0  0  0  0
 17 45  1  0  0  0  0
 18 19  1  0  0  0  0
 18 46  1  0  0  0  0
 18 47  1  0  0  0  0
 19 20  1  0  0  0  0
 19 29  1  0  0  0  0
 20 21  2  0  0  0  0
 20 22  2  0  0  0  0
 20 23  1  0  0  0  0
 23 28  2  0  0  0  0
 23 24  1  0  0  0  0
 24 25  2  0  0  0  0
 24 48  1  0  0  0  0
 25 26  1  0  0  0  0
 25 49  1  0  0  0  0
 26 27  2  0  0  0  0
 26 50  1  0  0  0  0
 27 28  1  0  0  0  0
 27 51  1  0  0  0  0
 28 52  1  0  0  0  0
 29 30  1  0  0  0  0
 29 53  1  0  0  0  0
 29 54  1  0  0  0  0
 30 55  1  0  0  0  0
 30 56  1  0  0  0  0
 31 57  1  0  0  0  0
 32 33  1  0  0  0  0
 33 34  1  0  0  0  0
 34 35  2  0  0  0  0
 34 36  1  0  0  0  0
M  CHG  2   3  -1  36  -1
M  END
$$$$
