18639-1
 OpenBabel02232411163D
Structure written by MMmdl.
 48 49  0  0  0  0  0  0  0  0999 V2000
   23.1900   10.7950   29.0620 C   0  0  0  0  0  0  0  0  0  0  0  0
   23.4700   11.0470   30.5290 C   0  0  0  0  0  0  0  0  0  0  0  0
   22.2080   11.1580   31.2900 O   0  0  0  0  0  0  0  0  0  0  0  0
   21.5500   10.0290   31.6380 C   0  0  0  0  0  0  0  0  0  0  0  0
   22.0190    8.8310   31.2200 N   0  0  0  0  0  0  0  0  0  0  0  0
   21.2750    7.7060   31.5350 C   0  0  0  0  0  0  0  0  0  0  0  0
   20.1090    7.7600   32.2900 C   0  0  0  0  0  0  0  0  0  0  0  0
   19.6370    9.0200   32.7490 C   0  0  0  0  0  0  0  0  0  0  0  0
   18.4830    9.0780   33.4870 N   0  0  0  0  0  0  0  0  0  0  0  0
   20.3660   10.2070   32.4150 C   0  0  0  0  0  0  0  0  0  0  0  0
   19.9700   11.5130   32.7740 C   0  0  0  0  0  0  0  0  0  0  0  0
   19.6940   12.6100   33.0280 N   0  0  0  0  0  0  0  0  0  0  0  0
   21.8510    6.5380   30.9820 N   0  0  0  0  0  0  0  0  0  0  0  0
   21.2480    5.2680   30.8840 C   0  0  0  0  0  0  0  0  0  0  0  0
   20.1550    5.0190   31.3450 O   0  0  0  0  0  0  0  0  0  0  0  0
   22.0720    4.2700   30.0770 C   0  0  0  0  0  0  0  0  0  0  0  0
   23.4400    4.0010   30.6310 C   0  0  0  0  0  0  0  0  0  0  0  0
   24.5360    4.8630   30.3110 C   0  0  0  0  0  0  0  0  0  0  0  0
   24.1770    5.9100   29.4710 O   0  0  0  0  0  0  0  0  0  0  0  0
   25.1290    6.9980   29.3070 C   0  0  0  0  0  0  0  0  0  0  0  0
   25.8160    4.6240   30.7850 C   0  0  0  0  0  0  0  0  0  0  0  0
   26.0480    3.5100   31.6190 C   0  0  0  0  0  0  0  0  0  0  0  0
   27.4010    3.2570   32.1230 N   0  3  0  0  0  0  0  0  0  0  0  0
   27.5350    2.4690   33.0470 O   0  5  0  0  0  0  0  0  0  0  0  0
   28.3400    3.8380   31.5930 O   0  0  0  0  0  0  0  0  0  0  0  0
   24.9770    2.6440   31.9430 C   0  0  0  0  0  0  0  0  0  0  0  0
   23.6820    2.8960   31.4320 C   0  0  0  0  0  0  0  0  0  0  0  0
   25.3250    1.6080   32.7560 O   0  0  0  0  0  0  0  0  0  0  0  0
   24.3280    0.5730   33.0010 C   0  0  0  0  0  0  0  0  0  0  0  0
   24.1490   10.8490   28.4900 H   0  0  0  0  0  0  0  0  0  0  0  0
   22.4950   11.5570   28.6450 H   0  0  0  0  0  0  0  0  0  0  0  0
   22.7480    9.7830   28.9040 H   0  0  0  0  0  0  0  0  0  0  0  0
   23.8790   12.0700   30.7100 H   0  0  0  0  0  0  0  0  0  0  0  0
   24.1070   10.2510   30.9780 H   0  0  0  0  0  0  0  0  0  0  0  0
   19.5410    6.8560   32.5170 H   0  0  0  0  0  0  0  0  0  0  0  0
   17.9770    8.2110   33.7530 H   0  0  0  0  0  0  0  0  0  0  0  0
   18.0890    9.9680   33.7920 H   0  0  0  0  0  0  0  0  0  0  0  0
   22.7720    6.6860   30.4990 H   0  0  0  0  0  0  0  0  0  0  0  0
   21.4990    3.3070   30.0150 H   0  0  0  0  0  0  0  0  0  0  0  0
   22.1800    4.6880   29.0350 H   0  0  0  0  0  0  0  0  0  0  0  0
   25.4450    7.3940   30.2970 H   0  0  0  0  0  0  0  0  0  0  0  0
   25.9860    6.6440   28.6950 H   0  0  0  0  0  0  0  0  0  0  0  0
   24.5120    7.7450   28.7560 H   0  0  0  0  0  0  0  0  0  0  0  0
   26.6550    5.2760   30.5160 H   0  0  0  0  0  0  0  0  0  0  0  0
   22.8660    2.2080   31.6670 H   0  0  0  0  0  0  0  0  0  0  0  0
   24.9140   -0.1590   33.6080 H   0  0  0  0  0  0  0  0  0  0  0  0
   23.4800    0.9890   33.5860 H   0  0  0  0  0  0  0  0  0  0  0  0
   24.0020    0.1210   32.0390 H   0  0  0  0  0  0  0  0  0  0  0  0
  1  2  1  0  0  0  0
  1 30  1  0  0  0  0
  1 31  1  0  0  0  0
  1 32  1  0  0  0  0
  2  3  1  0  0  0  0
  2 33  1  0  0  0  0
  2 34  1  0  0  0  0
  3  4  1  0  0  0  0
  4 10  2  0  0  0  0
  4  5  1  0  0  0  0
  5  6  2  0  0  0  0
  6  7  1  0  0  0  0
  6 13  1  0  0  0  0
  7  8  2  0  0  0  0
  7 35  1  0  0  0  0
  8  9  1  0  0  0  0
  8 10  1  0  0  0  0
  9 36  1  0  0  0  0
  9 37  1  0  0  0  0
 10 11  1  0  0  0  0
 11 12  3  0  0  0  0
 13 14  1  0  0  0  0
 13 38  1  0  0  0  0
 14 15  2  0  0  0  0
 14 16  1  0  0  0  0
 16 17  1  0  0  0  0
 16 39  1  0  0  0  0
 16 40  1  0  0  0  0
 17 27  2  0  0  0  0
 17 18  1  0  0  0  0
 18 19  1  0  0  0  0
 18 21  2  0  0  0  0
 19 20  1  0  0  0  0
 20 41  1  0  0  0  0
 20 42  1  0  0  0  0
 20 43  1  0  0  0  0
 21 22  1  0  0  0  0
 21 44  1  0  0  0  0
 22 23  1  0  0  0  0
 22 26  2  0  0  0  0
 23 24  1  0  0  0  0
 23 25  2  0  0  0  0
 26 27  1  0  0  0  0
 26 28  1  0  0  0  0
 27 45  1  0  0  0  0
 28 29  1  0  0  0  0
 29 46  1  0  0  0  0
 29 47  1  0  0  0  0
 29 48  1  0  0  0  0
M  CHG  2  23   1  24  -1
M  END
$$$$
