18637-1
 OpenBabel02232411163D
Structure written by MMmdl.
 53 54  0  0  0  0  0  0  0  0999 V2000
   23.8630   12.5880   30.3230 C   0  0  0  0  0  0  0  0  0  0  0  0
   23.4290   11.1420   30.4650 C   0  0  0  0  0  0  0  0  0  0  0  0
   22.1720   11.2430   31.2490 O   0  0  0  0  0  0  0  0  0  0  0  0
   21.5330   10.1030   31.5910 C   0  0  0  0  0  0  0  0  0  0  0  0
   22.0130    8.9150   31.1560 N   0  0  0  0  0  0  0  0  0  0  0  0
   21.2810    7.7770   31.4680 C   0  0  0  0  0  0  0  0  0  0  0  0
   20.1200    7.8190   32.2360 C   0  0  0  0  0  0  0  0  0  0  0  0
   19.6350    9.0700   32.7010 C   0  0  0  0  0  0  0  0  0  0  0  0
   18.4880    9.1170   33.4530 N   0  0  0  0  0  0  0  0  0  0  0  0
   20.3460   10.2660   32.3650 C   0  0  0  0  0  0  0  0  0  0  0  0
   19.9240   11.5650   32.7160 C   0  0  0  0  0  0  0  0  0  0  0  0
   19.6220   12.6580   32.9650 N   0  0  0  0  0  0  0  0  0  0  0  0
   21.8450    6.6130   30.9030 N   0  0  0  0  0  0  0  0  0  0  0  0
   21.2350    5.3380   30.8200 C   0  0  0  0  0  0  0  0  0  0  0  0
   20.1600    5.0980   31.3300 O   0  0  0  0  0  0  0  0  0  0  0  0
   22.0150    4.3400   29.9760 C   0  0  0  0  0  0  0  0  0  0  0  0
   23.3340    3.9590   30.5790 C   0  0  0  0  0  0  0  0  0  0  0  0
   24.4850    4.7460   30.3430 C   0  0  0  0  0  0  0  0  0  0  0  0
   24.2400    5.8380   29.5240 O   0  0  0  0  0  0  0  0  0  0  0  0
   25.3110    6.7970   29.3270 C   0  0  0  0  0  0  0  0  0  0  0  0
   25.7290    4.4140   30.8840 C   0  0  0  0  0  0  0  0  0  0  0  0
   25.8600    3.2610   31.6770 C   0  0  0  0  0  0  0  0  0  0  0  0
   24.7120    2.4460   31.9010 C   0  0  0  0  0  0  0  0  0  0  0  0
   23.4720    2.8060   31.3580 C   0  0  0  0  0  0  0  0  0  0  0  0
   24.9290    1.3370   32.6970 O   0  0  0  0  0  0  0  0  0  0  0  0
   23.9790    0.2460   32.5400 C   0  0  0  0  0  0  0  0  0  0  0  0
   27.1610    2.9340   32.1580 N   0  0  0  0  0  0  0  0  0  0  0  0
   27.4900    2.3690   33.4220 C   0  0  0  0  0  0  0  0  0  0  0  0
   26.6270    2.0110   34.1980 O   0  0  0  0  0  0  0  0  0  0  0  0
   28.9690    2.2650   33.6480 C   0  0  0  0  0  0  0  0  0  0  0  0
   24.0620   13.0530   31.3140 H   0  0  0  0  0  0  0  0  0  0  0  0
   23.0870   13.1890   29.7930 H   0  0  0  0  0  0  0  0  0  0  0  0
   24.8020   12.6210   29.7150 H   0  0  0  0  0  0  0  0  0  0  0  0
   23.1830   10.6740   29.4850 H   0  0  0  0  0  0  0  0  0  0  0  0
   24.1540   10.5320   31.0490 H   0  0  0  0  0  0  0  0  0  0  0  0
   19.5640    6.9090   32.4690 H   0  0  0  0  0  0  0  0  0  0  0  0
   18.0870   10.0040   33.7560 H   0  0  0  0  0  0  0  0  0  0  0  0
   17.9790    8.2490   33.7090 H   0  0  0  0  0  0  0  0  0  0  0  0
   22.7730    6.7460   30.4280 H   0  0  0  0  0  0  0  0  0  0  0  0
   21.3870    3.4250   29.8310 H   0  0  0  0  0  0  0  0  0  0  0  0
   22.1990    4.8070   28.9680 H   0  0  0  0  0  0  0  0  0  0  0  0
   25.6470    7.2090   30.3030 H   0  0  0  0  0  0  0  0  0  0  0  0
   26.1420    6.3200   28.7660 H   0  0  0  0  0  0  0  0  0  0  0  0
   24.8010    7.5770   28.7150 H   0  0  0  0  0  0  0  0  0  0  0  0
   26.6050    5.0330   30.6790 H   0  0  0  0  0  0  0  0  0  0  0  0
   22.5950    2.1750   31.5270 H   0  0  0  0  0  0  0  0  0  0  0  0
   24.4630   -0.5700   33.1260 H   0  0  0  0  0  0  0  0  0  0  0  0
   22.9960    0.5230   32.9810 H   0  0  0  0  0  0  0  0  0  0  0  0
   23.8910   -0.0370   31.4690 H   0  0  0  0  0  0  0  0  0  0  0  0
   27.9360    3.3400   31.5970 H   0  0  0  0  0  0  0  0  0  0  0  0
   29.2030    1.7750   34.6270 H   0  0  0  0  0  0  0  0  0  0  0  0
   29.4700    1.6640   32.8430 H   0  0  0  0  0  0  0  0  0  0  0  0
   29.4540    3.2760   33.6510 H   0  0  0  0  0  0  0  0  0  0  0  0
  1  2  1  0  0  0  0
  1 31  1  0  0  0  0
  1 32  1  0  0  0  0
  1 33  1  0  0  0  0
  2  3  1  0  0  0  0
  2 34  1  0  0  0  0
  2 35  1  0  0  0  0
  3  4  1  0  0  0  0
  4 10  2  0  0  0  0
  4  5  1  0  0  0  0
  5  6  2  0  0  0  0
  6  7  1  0  0  0  0
  6 13  1  0  0  0  0
  7  8  2  0  0  0  0
  7 36  1  0  0  0  0
  8  9  1  0  0  0  0
  8 10  1  0  0  0  0
  9 37  1  0  0  0  0
  9 38  1  0  0  0  0
 10 11  1  0  0  0  0
 11 12  3  0  0  0  0
 13 14  1  0  0  0  0
 13 39  1  0  0  0  0
 14 15  2  0  0  0  0
 14 16  1  0  0  0  0
 16 17  1  0  0  0  0
 16 40  1  0  0  0  0
 16 41  1  0  0  0  0
 17 24  2  0  0  0  0
 17 18  1  0  0  0  0
 18 19  1  0  0  0  0
 18 21  2  0  0  0  0
 19 20  1  0  0  0  0
 20 42  1  0  0  0  0
 20 43  1  0  0  0  0
 20 44  1  0  0  0  0
 21 22  1  0  0  0  0
 21 45  1  0  0  0  0
 22 23  2  0  0  0  0
 22 27  1  0  0  0  0
 23 24  1  0  0  0  0
 23 25  1  0  0  0  0
 24 46  1  0  0  0  0
 25 26  1  0  0  0  0
 26 47  1  0  0  0  0
 26 48  1  0  0  0  0
 26 49  1  0  0  0  0
 27 28  1  0  0  0  0
 27 50  1  0  0  0  0
 28 29  2  0  0  0  0
 28 30  1  0  0  0  0
 30 51  1  0  0  0  0
 30 52  1  0  0  0  0
 30 53  1  0  0  0  0
M  END
$$$$
