18625-1 flip
                    3D
 Schrodinger Suite 2022-3.
 38 39  0  0  1  0  0  0  0  0999 V2000
   24.7020    2.6300   32.3160 C   0  0  0  0  0  0  0  0  0  0  0  0
   23.5620    2.9960   31.5960 C   0  0  0  0  0  0  0  0  0  0  0  0
   23.5580    4.0810   30.7030 C   0  0  0  0  0  0  0  0  0  0  0  0
   24.7560    4.7920   30.5290 C   0  0  0  0  0  0  0  0  0  0  0  0
   25.9060    4.4310   31.2360 C   0  0  0  0  0  0  0  0  0  0  0  0
   25.8800    3.3570   32.1320 C   0  0  0  0  0  0  0  0  0  0  0  0
   22.3180    4.4680   29.9490 C   0  0  0  0  0  0  0  0  0  0  0  0
   21.4090    5.3610   30.7870 C   0  0  0  0  0  0  0  0  0  0  0  0
   21.9220    6.6800   30.8960 N   0  0  0  0  0  0  0  0  0  0  0  0
   21.3130    7.8140   31.4830 C   0  0  0  0  0  0  0  0  0  0  0  0
   20.3610    5.0120   31.2820 O   0  0  0  0  0  0  0  0  0  0  0  0
   22.0200    8.9690   31.1810 N   0  0  0  0  0  0  0  0  0  0  0  0
   21.5220   10.1460   31.6230 C   0  0  0  0  0  0  0  0  0  0  0  0
   20.3370   10.2750   32.4080 C   0  0  0  0  0  0  0  0  0  0  0  0
   19.6500    9.0620   32.7320 C   0  0  0  0  0  0  0  0  0  0  0  0
   20.1540    7.8210   32.2520 C   0  0  0  0  0  0  0  0  0  0  0  0
   18.5010    9.0850   33.4810 N   0  0  0  0  0  0  0  0  0  0  0  0
   19.9040   11.5650   32.7800 C   0  0  0  0  0  0  0  0  0  0  0  0
   22.1390   11.3020   31.2950 O   0  0  0  0  0  0  0  0  0  0  0  0
   23.4120   11.2600   30.5450 C   0  0  0  0  0  0  0  0  0  0  0  0
   23.1550   11.0450   29.0700 C   0  0  0  0  0  0  0  0  0  0  0  0
   19.6010   12.6540   33.0390 N   0  0  0  0  0  0  0  0  0  0  0  0
   24.6820    1.7810   33.0090 H   0  0  0  0  0  0  0  0  0  0  0  0
   24.8100    5.6320   29.8300 H   0  0  0  0  0  0  0  0  0  0  0  0
   19.6200    6.8980   32.4810 H   0  0  0  0  0  0  0  0  0  0  0  0
   21.7390    3.5540   29.6450 H   0  0  0  0  0  0  0  0  0  0  0  0
   22.6070    5.0060   29.0050 H   0  0  0  0  0  0  0  0  0  0  0  0
   22.8350    6.8820   30.4340 H   0  0  0  0  0  0  0  0  0  0  0  0
   18.0210    8.2070   33.7570 H   0  0  0  0  0  0  0  0  0  0  0  0
   18.0940    9.9640   33.8020 H   0  0  0  0  0  0  0  0  0  0  0  0
   24.0740   10.4750   30.9780 H   0  0  0  0  0  0  0  0  0  0  0  0
   23.7810   12.2910   30.7650 H   0  0  0  0  0  0  0  0  0  0  0  0
   24.1070   11.1990   28.5030 H   0  0  0  0  0  0  0  0  0  0  0  0
   22.8000   10.0060   28.8670 H   0  0  0  0  0  0  0  0  0  0  0  0
   22.4010   11.7640   28.6790 H   0  0  0  0  0  0  0  0  0  0  0  0
   26.7860    3.0830   32.6820 H   0  0  0  0  0  0  0  0  0  0  0  0
   26.8330    4.9920   31.0830 H   0  0  0  0  0  0  0  0  0  0  0  0
   22.1320    2.0650   31.7820 Cl  0  0  0  0  0  0  0  0  0  0  0  0
  1  2  1  0  0  0  0
  1  6  2  0  0  0  0
  1 23  1  0  0  0  0
  2  3  2  0  0  0  0
  2 38  1  0  0  0  0
  3  4  1  0  0  0  0
  3  7  1  0  0  0  0
  4  5  2  0  0  0  0
  4 24  1  0  0  0  0
  5  6  1  0  0  0  0
  5 37  1  0  0  0  0
  6 36  1  0  0  0  0
  7  8  1  0  0  0  0
  7 26  1  0  0  0  0
  7 27  1  0  0  0  0
  8  9  1  0  0  0  0
  8 11  2  0  0  0  0
  9 10  1  0  0  0  0
  9 28  1  0  0  0  0
 10 12  1  0  0  0  0
 10 16  2  0  0  0  0
 12 13  2  0  0  0  0
 13 14  1  0  0  0  0
 13 19  1  0  0  0  0
 14 15  2  0  0  0  0
 14 18  1  0  0  0  0
 15 16  1  0  0  0  0
 15 17  1  0  0  0  0
 16 25  1  0  0  0  0
 17 29  1  0  0  0  0
 17 30  1  0  0  0  0
 18 22  3  0  0  0  0
 19 20  1  0  0  0  0
 20 21  1  0  0  0  0
 20 31  1  0  0  0  0
 20 32  1  0  0  0  0
 21 33  1  0  0  0  0
 21 34  1  0  0  0  0
 21 35  1  0  0  0  0
M  END
$$$$
