35
                    3D
 Schrodinger Suite 2022-3.
 41 43  0  0  1  0  0  0  0  0999 V2000
    3.4730  -48.4520    7.2060 O   0  0  0  0  0  0  0  0  0  0  0  0
    3.0600  -49.3650    6.4780 C   0  0  0  0  0  0  0  0  0  0  0  0
    3.7490  -50.1480    5.7970 O   0  5  0  0  0  0  0  0  0  0  0  0
    1.5390  -49.6080    6.4090 C   0  0  0  0  0  0  0  0  0  0  0  0
   -0.3620  -50.8730    6.5680 C   0  0  0  0  0  0  0  0  0  0  0  0
   -1.3130  -51.8850    6.7820 C   0  0  0  0  0  0  0  0  0  0  0  0
   -2.6370  -51.5880    6.4910 C   0  0  0  0  0  0  0  0  0  0  0  0
   -3.0120  -50.3160    5.9980 C   0  0  0  0  0  0  0  0  0  0  0  0
   -2.0760  -49.3110    5.7880 C   0  0  0  0  0  0  0  0  0  0  0  0
   -0.7250  -49.5680    6.0740 C   0  0  0  0  0  0  0  0  0  0  0  0
    0.4930  -48.7900    5.9980 C   0  0  0  0  0  0  0  0  0  0  0  0
    0.5470  -47.3680    5.5640 C   0  0  0  0  0  0  0  0  0  0  0  0
    0.5210  -46.3870    6.7510 C   0  0  0  0  0  0  0  0  0  0  0  0
   -0.8110  -46.3760    7.4970 C   0  0  0  0  0  0  0  0  0  0  0  0
   -1.7250  -45.7260    6.5360 O   0  0  0  0  0  0  0  0  0  0  0  0
   -3.0070  -45.4860    6.9140 C   0  0  0  0  0  0  0  0  0  0  0  0
   -3.7420  -44.7640    5.9460 C   0  0  0  0  0  0  0  0  0  0  0  0
   -5.0800  -44.4500    6.1780 C   0  0  0  0  0  0  0  0  0  0  0  0
   -5.6500  -44.8600    7.4010 C   0  0  0  0  0  0  0  0  0  0  0  0
   -4.9310  -45.5690    8.3620 C   0  0  0  0  0  0  0  0  0  0  0  0
   -3.5960  -45.8950    8.1240 C   0  0  0  0  0  0  0  0  0  0  0  0
   -1.0300  -52.8650    7.1640 H   0  0  0  0  0  0  0  0  0  0  0  0
   -3.4100  -52.3410    6.6450 H   0  0  0  0  0  0  0  0  0  0  0  0
   -4.0650  -50.1320    5.7840 H   0  0  0  0  0  0  0  0  0  0  0  0
   -2.3940  -48.3390    5.4100 H   0  0  0  0  0  0  0  0  0  0  0  0
   -0.3420  -47.1490    4.9160 H   0  0  0  0  0  0  0  0  0  0  0  0
    1.4710  -47.1710    4.9690 H   0  0  0  0  0  0  0  0  0  0  0  0
    0.7060  -45.3540    6.3700 H   0  0  0  0  0  0  0  0  0  0  0  0
    1.3200  -46.6690    7.4790 H   0  0  0  0  0  0  0  0  0  0  0  0
   -0.7830  -45.7340    8.4010 H   0  0  0  0  0  0  0  0  0  0  0  0
   -1.2120  -47.3940    7.6900 H   0  0  0  0  0  0  0  0  0  0  0  0
   -3.2630  -44.4740    5.0140 H   0  0  0  0  0  0  0  0  0  0  0  0
   -3.0560  -46.4750    8.8690 H   0  0  0  0  0  0  0  0  0  0  0  0
    1.0280  -50.8710    6.7680 N   0  0  0  0  0  0  0  0  0  0  0  0
    1.5460  -51.6770    7.0990 H   0  0  0  0  0  0  0  0  0  0  0  0
   -5.4160  -45.8800    9.2920 H   0  0  0  0  0  0  0  0  0  0  0  0
   -7.3170  -44.5210    7.7020 Cl  0  0  0  0  0  0  0  0  0  0  0  0
   -5.9000  -43.7630    5.1400 C   0  0  0  0  0  0  0  0  0  0  0  0
   -6.6450  -44.4890    4.7260 H   0  0  0  0  0  0  0  0  0  0  0  0
   -6.4610  -42.9010    5.5690 H   0  0  0  0  0  0  0  0  0  0  0  0
   -5.2600  -43.3910    4.3060 H   0  0  0  0  0  0  0  0  0  0  0  0
  1  2  2  0  0  0  0
  2  3  1  0  0  0  0
  2  4  1  0  0  0  0
  4 11  2  0  0  0  0
  4 34  1  0  0  0  0
  5  6  1  0  0  0  0
  5 10  2  0  0  0  0
  5 34  1  0  0  0  0
  6  7  2  0  0  0  0
  6 22  1  0  0  0  0
  7  8  1  0  0  0  0
  7 23  1  0  0  0  0
  8  9  2  0  0  0  0
  8 24  1  0  0  0  0
  9 10  1  0  0  0  0
  9 25  1  0  0  0  0
 10 11  1  0  0  0  0
 11 12  1  0  0  0  0
 12 26  1  0  0  0  0
 12 27  1  0  0  0  0
 12 13  1  0  0  0  0
 13 14  1  0  0  0  0
 13 28  1  0  0  0  0
 13 29  1  0  0  0  0
 14 15  1  0  0  0  0
 14 30  1  0  0  0  0
 14 31  1  0  0  0  0
 15 16  1  0  0  0  0
 16 17  1  0  0  0  0
 16 21  2  0  0  0  0
 17 18  2  0  0  0  0
 17 32  1  0  0  0  0
 18 19  1  0  0  0  0
 18 38  1  0  0  0  0
 19 20  2  0  0  0  0
 19 37  1  0  0  0  0
 20 21  1  0  0  0  0
 20 36  1  0  0  0  0
 21 33  1  0  0  0  0
 34 35  1  0  0  0  0
 38 39  1  0  0  0  0
 38 40  1  0  0  0  0
 38 41  1  0  0  0  0
M  CHG  1   3  -1
M  END
$$$$
