18638-1
 OpenBabel02232411163D
Structure written by MMmdl.
 52 53  0  0  0  0  0  0  0  0999 V2000
   24.5820   10.7620   30.7020 C   0  0  0  0  0  0  0  0  0  0  0  0
   23.2520   11.0920   30.0600 C   0  0  0  0  0  0  0  0  0  0  0  0
   22.1830   11.1660   31.0780 O   0  0  0  0  0  0  0  0  0  0  0  0
   21.6040   10.0250   31.5170 C   0  0  0  0  0  0  0  0  0  0  0  0
   22.0780    8.8250   31.1030 N   0  0  0  0  0  0  0  0  0  0  0  0
   21.3820    7.6950   31.5000 C   0  0  0  0  0  0  0  0  0  0  0  0
   20.2490    7.7530   32.3050 C   0  0  0  0  0  0  0  0  0  0  0  0
   19.7610    9.0140   32.7380 C   0  0  0  0  0  0  0  0  0  0  0  0
   18.6090    9.0740   33.4820 N   0  0  0  0  0  0  0  0  0  0  0  0
   20.4660   10.2010   32.3600 C   0  0  0  0  0  0  0  0  0  0  0  0
   20.0760   11.5060   32.7290 C   0  0  0  0  0  0  0  0  0  0  0  0
   19.8050   12.6010   32.9990 N   0  0  0  0  0  0  0  0  0  0  0  0
   21.9400    6.5030   30.9720 N   0  0  0  0  0  0  0  0  0  0  0  0
   21.2670    5.2650   30.8880 C   0  0  0  0  0  0  0  0  0  0  0  0
   20.1930    5.0670   31.4160 O   0  0  0  0  0  0  0  0  0  0  0  0
   21.9540    4.2400   30.0010 C   0  0  0  0  0  0  0  0  0  0  0  0
   23.3260    3.8100   30.4300 C   0  0  0  0  0  0  0  0  0  0  0  0
   24.4760    4.5250   29.9890 C   0  0  0  0  0  0  0  0  0  0  0  0
   24.1570    5.6710   29.2670 O   0  0  0  0  0  0  0  0  0  0  0  0
   25.1960    6.6780   29.1220 C   0  0  0  0  0  0  0  0  0  0  0  0
   25.7640    4.0470   30.2160 C   0  0  0  0  0  0  0  0  0  0  0  0
   25.9620    2.8610   30.9440 C   0  0  0  0  0  0  0  0  0  0  0  0
   27.6010    2.2430   31.0780 S   0  0  0  0  0  0  0  0  0  0  0  0
   28.5750    3.3360   30.8380 O   0  0  0  0  0  0  0  0  0  0  0  0
   27.8050    1.6490   32.4200 O   0  0  0  0  0  0  0  0  0  0  0  0
   27.6970    1.0440   29.8280 C   0  0  0  0  0  0  0  0  0  0  0  0
   24.8340    2.2040   31.4560 C   0  0  0  0  0  0  0  0  0  0  0  0
   23.5220    2.6610   31.1810 C   0  0  0  0  0  0  0  0  0  0  0  0
   25.0990    1.1230   32.2620 O   0  0  0  0  0  0  0  0  0  0  0  0
   24.0240    0.1730   32.5100 C   0  0  0  0  0  0  0  0  0  0  0  0
   24.5880    9.7210   31.1050 H   0  0  0  0  0  0  0  0  0  0  0  0
   24.8160   11.4700   31.5240 H   0  0  0  0  0  0  0  0  0  0  0  0
   25.3890   10.8280   29.9300 H   0  0  0  0  0  0  0  0  0  0  0  0
   23.2130   12.1430   29.6810 H   0  0  0  0  0  0  0  0  0  0  0  0
   22.9670   10.3580   29.2740 H   0  0  0  0  0  0  0  0  0  0  0  0
   19.7110    6.8450   32.5900 H   0  0  0  0  0  0  0  0  0  0  0  0
   18.1070    8.2090   33.7590 H   0  0  0  0  0  0  0  0  0  0  0  0
   18.2100    9.9660   33.7730 H   0  0  0  0  0  0  0  0  0  0  0  0
   22.8440    6.6080   30.4550 H   0  0  0  0  0  0  0  0  0  0  0  0
   21.2960    3.3320   29.9410 H   0  0  0  0  0  0  0  0  0  0  0  0
   22.0280    4.6930   28.9710 H   0  0  0  0  0  0  0  0  0  0  0  0
   24.6050    7.5550   28.7660 H   0  0  0  0  0  0  0  0  0  0  0  0
   25.6800    6.8870   30.0990 H   0  0  0  0  0  0  0  0  0  0  0  0
   25.9240    6.3370   28.3550 H   0  0  0  0  0  0  0  0  0  0  0  0
   26.6220    4.5900   29.8010 H   0  0  0  0  0  0  0  0  0  0  0  0
   27.5650    1.4920   28.8070 H   0  0  0  0  0  0  0  0  0  0  0  0
   28.6830    0.5120   29.8140 H   0  0  0  0  0  0  0  0  0  0  0  0
   26.9070    0.2550   29.9250 H   0  0  0  0  0  0  0  0  0  0  0  0
   22.6600    2.0980   31.5440 H   0  0  0  0  0  0  0  0  0  0  0  0
   23.6340   -0.2100   31.5430 H   0  0  0  0  0  0  0  0  0  0  0  0
   23.2340    0.6340   33.1400 H   0  0  0  0  0  0  0  0  0  0  0  0
   24.5610   -0.6320   33.0680 H   0  0  0  0  0  0  0  0  0  0  0  0
  1  2  1  0  0  0  0
  1 31  1  0  0  0  0
  1 32  1  0  0  0  0
  1 33  1  0  0  0  0
  2  3  1  0  0  0  0
  2 34  1  0  0  0  0
  2 35  1  0  0  0  0
  3  4  1  0  0  0  0
  4 10  2  0  0  0  0
  4  5  1  0  0  0  0
  5  6  2  0  0  0  0
  6  7  1  0  0  0  0
  6 13  1  0  0  0  0
  7  8  2  0  0  0  0
  7 36  1  0  0  0  0
  8  9  1  0  0  0  0
  8 10  1  0  0  0  0
  9 37  1  0  0  0  0
  9 38  1  0  0  0  0
 10 11  1  0  0  0  0
 11 12  3  0  0  0  0
 13 14  1  0  0  0  0
 13 39  1  0  0  0  0
 14 15  2  0  0  0  0
 14 16  1  0  0  0  0
 16 17  1  0  0  0  0
 16 40  1  0  0  0  0
 16 41  1  0  0  0  0
 17 28  2  0  0  0  0
 17 18  1  0  0  0  0
 18 19  1  0  0  0  0
 18 21  2  0  0  0  0
 19 20  1  0  0  0  0
 20 42  1  0  0  0  0
 20 43  1  0  0  0  0
 20 44  1  0  0  0  0
 21 22  1  0  0  0  0
 21 45  1  0  0  0  0
 22 23  1  0  0  0  0
 22 27  2  0  0  0  0
 23 24  2  0  0  0  0
 23 25  2  0  0  0  0
 23 26  1  0  0  0  0
 26 46  1  0  0  0  0
 26 47  1  0  0  0  0
 26 48  1  0  0  0  0
 27 28  1  0  0  0  0
 27 29  1  0  0  0  0
 28 49  1  0  0  0  0
 29 30  1  0  0  0  0
 30 50  1  0  0  0  0
 30 51  1  0  0  0  0
 30 52  1  0  0  0  0
M  END
$$$$
