28 flip
                    3D
 Schrodinger Suite 2022-3.
 41 43  0  0  1  0  0  0  0  0999 V2000
    3.2960  -48.1990    7.1940 O   0  0  0  0  0  0  0  0  0  0  0  0
    2.8910  -49.1480    6.5100 C   0  0  0  0  0  0  0  0  0  0  0  0
    3.5900  -49.9510    5.8610 O   0  5  0  0  0  0  0  0  0  0  0  0
    1.3750  -49.4250    6.4580 C   0  0  0  0  0  0  0  0  0  0  0  0
   -0.4810  -50.7590    6.6140 C   0  0  0  0  0  0  0  0  0  0  0  0
   -1.3960  -51.8080    6.8070 C   0  0  0  0  0  0  0  0  0  0  0  0
   -2.7320  -51.5470    6.5430 C   0  0  0  0  0  0  0  0  0  0  0  0
   -3.1590  -50.2710    6.1030 C   0  0  0  0  0  0  0  0  0  0  0  0
   -2.2600  -49.2300    5.9160 C   0  0  0  0  0  0  0  0  0  0  0  0
   -0.8960  -49.4530    6.1650 C   0  0  0  0  0  0  0  0  0  0  0  0
    0.2960  -48.6330    6.0830 C   0  0  0  0  0  0  0  0  0  0  0  0
    0.2830  -47.2100    5.6530 C   0  0  0  0  0  0  0  0  0  0  0  0
    0.1560  -46.2220    6.8280 C   0  0  0  0  0  0  0  0  0  0  0  0
   -1.1800  -46.3180    7.5680 C   0  0  0  0  0  0  0  0  0  0  0  0
   -2.1800  -45.9520    6.5550 O   0  0  0  0  0  0  0  0  0  0  0  0
   -3.4100  -45.4820    6.9410 C   0  0  0  0  0  0  0  0  0  0  0  0
   -4.1770  -45.8860    8.0600 C   0  0  0  0  0  0  0  0  0  0  0  0
   -5.4280  -45.2740    8.2420 C   0  0  0  0  0  0  0  0  0  0  0  0
   -5.9340  -44.3460    7.3310 C   0  0  0  0  0  0  0  0  0  0  0  0
   -5.1870  -44.0050    6.1970 C   0  0  0  0  0  0  0  0  0  0  0  0
   -3.9270  -44.5620    6.0020 C   0  0  0  0  0  0  0  0  0  0  0  0
   -1.0760  -52.7910    7.1520 H   0  0  0  0  0  0  0  0  0  0  0  0
   -3.4760  -52.3320    6.6760 H   0  0  0  0  0  0  0  0  0  0  0  0
   -4.2200  -50.1120    5.9120 H   0  0  0  0  0  0  0  0  0  0  0  0
   -2.6170  -48.2510    5.5890 H   0  0  0  0  0  0  0  0  0  0  0  0
   -0.5980  -47.0510    4.9760 H   0  0  0  0  0  0  0  0  0  0  0  0
    1.2120  -46.9600    5.0870 H   0  0  0  0  0  0  0  0  0  0  0  0
    0.2620  -45.1850    6.4350 H   0  0  0  0  0  0  0  0  0  0  0  0
    0.9650  -46.4250    7.5700 H   0  0  0  0  0  0  0  0  0  0  0  0
   -1.2460  -45.5920    8.4020 H   0  0  0  0  0  0  0  0  0  0  0  0
   -1.4130  -47.3590    7.8720 H   0  0  0  0  0  0  0  0  0  0  0  0
   -3.3420  -44.3050    5.1220 H   0  0  0  0  0  0  0  0  0  0  0  0
    0.9100  -50.7130    6.7960 N   0  0  0  0  0  0  0  0  0  0  0  0
    1.4610  -51.5130    7.0830 H   0  0  0  0  0  0  0  0  0  0  0  0
   -5.5920  -43.2990    5.4710 H   0  0  0  0  0  0  0  0  0  0  0  0
   -6.9150  -43.9030    7.4930 H   0  0  0  0  0  0  0  0  0  0  0  0
   -6.0390  -45.5440    9.1060 H   0  0  0  0  0  0  0  0  0  0  0  0
   -3.7770  -46.9750    9.0050 C   0  0  0  0  0  0  0  0  0  0  0  0
   -4.6700  -47.3520    9.5630 H   0  0  0  0  0  0  0  0  0  0  0  0
   -3.3640  -47.8420    8.4350 H   0  0  0  0  0  0  0  0  0  0  0  0
   -3.0440  -46.6070    9.7540 H   0  0  0  0  0  0  0  0  0  0  0  0
  1  2  2  0  0  0  0
  2  3  1  0  0  0  0
  2  4  1  0  0  0  0
  4 11  2  0  0  0  0
  4 33  1  0  0  0  0
  5  6  1  0  0  0  0
  5 10  2  0  0  0  0
  5 33  1  0  0  0  0
  6  7  2  0  0  0  0
  6 22  1  0  0  0  0
  7  8  1  0  0  0  0
  7 23  1  0  0  0  0
  8  9  2  0  0  0  0
  8 24  1  0  0  0  0
  9 10  1  0  0  0  0
  9 25  1  0  0  0  0
 10 11  1  0  0  0  0
 11 12  1  0  0  0  0
 12 26  1  0  0  0  0
 12 27  1  0  0  0  0
 12 13  1  0  0  0  0
 13 14  1  0  0  0  0
 13 28  1  0  0  0  0
 13 29  1  0  0  0  0
 14 15  1  0  0  0  0
 14 30  1  0  0  0  0
 14 31  1  0  0  0  0
 15 16  1  0  0  0  0
 16 17  1  0  0  0  0
 16 21  2  0  0  0  0
 17 18  2  0  0  0  0
 17 38  1  0  0  0  0
 18 19  1  0  0  0  0
 18 37  1  0  0  0  0
 19 20  2  0  0  0  0
 19 36  1  0  0  0  0
 20 21  1  0  0  0  0
 20 35  1  0  0  0  0
 21 32  1  0  0  0  0
 33 34  1  0  0  0  0
 38 39  1  0  0  0  0
 38 40  1  0  0  0  0
 38 41  1  0  0  0  0
M  CHG  1   3  -1
M  END
$$$$
