p38a_3flz
 OpenBabel02232411163D
Structure written by MMmdl.
 46 49  0  0  0  0  0  0  0  0999 V2000
   35.0640   35.1910   19.0370 O   0  0  0  0  0  0  0  0  0  0  0  0
   34.9290   37.2860   20.2920 C   0  0  0  0  0  0  0  0  0  0  0  0
   34.1590   37.1120   22.6440 C   0  0  0  0  0  0  0  0  0  0  0  0
   34.5820   37.9090   21.5380 C   0  0  0  0  0  0  0  0  0  0  0  0
   34.6340   39.3150   21.7420 C   0  0  0  0  0  0  0  0  0  0  0  0
   33.9520   39.0490   23.9710 C   0  0  0  0  0  0  0  0  0  0  0  0
   34.8350   35.9380   20.1880 C   0  0  0  0  0  0  0  0  0  0  0  0
   36.1080   35.6280   18.2030 C   0  0  0  0  0  0  0  0  0  0  0  0
   33.6090   34.9190   23.6880 C   0  0  0  0  0  0  0  0  0  0  0  0
   34.4660   38.1950   27.0680 C   0  0  0  0  0  0  0  0  0  0  0  0
   37.3810   35.9400   18.6930 C   0  0  0  0  0  0  0  0  0  0  0  0
   38.1010   36.2390   16.3940 C   0  0  0  0  0  0  0  0  0  0  0  0
   38.3790   36.2500   17.7650 C   0  0  0  0  0  0  0  0  0  0  0  0
   36.8210   35.9150   15.9330 C   0  0  0  0  0  0  0  0  0  0  0  0
   34.2180   33.8440   21.1950 O   0  0  0  0  0  0  0  0  0  0  0  0
   34.3600   35.0450   21.2760 C   0  0  0  0  0  0  0  0  0  0  0  0
   35.8020   35.6020   16.8370 C   0  0  0  0  0  0  0  0  0  0  0  0
   34.3360   39.8990   22.9110 N   0  0  0  0  0  0  0  0  0  0  0  0
   34.0500   35.7200   22.5120 N   0  0  0  0  0  0  0  0  0  0  0  0
   33.8500   37.6740   23.8570 N   0  0  0  0  0  0  0  0  0  0  0  0
   33.6360   39.6320   25.1730 N   0  0  0  0  0  0  0  0  0  0  0  0
   33.2410   38.8240   26.3730 C   0  0  0  0  0  0  0  0  0  0  0  0
   32.4350   39.7150   27.3410 C   0  0  0  0  0  0  0  0  0  0  0  0
   33.3110   40.5930   28.2420 C   0  0  0  0  0  0  0  0  0  0  0  0
   34.3780   39.8530   28.8710 O   0  0  0  0  0  0  0  0  0  0  0  0
   35.2450   39.2060   27.9090 C   0  0  0  0  0  0  0  0  0  0  0  0
   35.2670   37.9220   19.4690 H   0  0  0  0  0  0  0  0  0  0  0  0
   34.9270   39.9750   20.9090 H   0  0  0  0  0  0  0  0  0  0  0  0
   33.6190   33.8260   23.4430 H   0  0  0  0  0  0  0  0  0  0  0  0
   34.2940   35.1060   24.5600 H   0  0  0  0  0  0  0  0  0  0  0  0
   32.5690   35.2220   23.9890 H   0  0  0  0  0  0  0  0  0  0  0  0
   34.0920   37.3650   27.7220 H   0  0  0  0  0  0  0  0  0  0  0  0
   35.1470   37.7370   26.3090 H   0  0  0  0  0  0  0  0  0  0  0  0
   37.5900   35.9730   19.7600 H   0  0  0  0  0  0  0  0  0  0  0  0
   38.8770   36.5240   15.6890 H   0  0  0  0  0  0  0  0  0  0  0  0
   39.3800   36.5210   18.1040 H   0  0  0  0  0  0  0  0  0  0  0  0
   36.6060   35.9300   14.8640 H   0  0  0  0  0  0  0  0  0  0  0  0
   34.7920   35.3890   16.4820 H   0  0  0  0  0  0  0  0  0  0  0  0
   33.7320   40.6580   25.2910 H   0  0  0  0  0  0  0  0  0  0  0  0
   32.5660   37.9910   26.0160 H   0  0  0  0  0  0  0  0  0  0  0  0
   31.7480   40.3750   26.7560 H   0  0  0  0  0  0  0  0  0  0  0  0
   31.8060   39.0390   27.9730 H   0  0  0  0  0  0  0  0  0  0  0  0
   33.7590   41.4310   27.6640 H   0  0  0  0  0  0  0  0  0  0  0  0
   32.7310   40.9690   29.1170 H   0  0  0  0  0  0  0  0  0  0  0  0
   35.9910   38.7040   28.5660 H   0  0  0  0  0  0  0  0  0  0  0  0
   35.7150   39.9860   27.2680 H   0  0  0  0  0  0  0  0  0  0  0  0
  1  7  1  0  0  0  0
  1  8  1  0  0  0  0
  2  4  1  0  0  0  0
  2  7  2  0  0  0  0
  2 27  1  0  0  0  0
  3  4  2  0  0  0  0
  3 19  1  0  0  0  0
  3 20  1  0  0  0  0
  4  5  1  0  0  0  0
  5 18  2  0  0  0  0
  5 28  1  0  0  0  0
  6 18  1  0  0  0  0
  6 20  2  0  0  0  0
  6 21  1  0  0  0  0
  7 16  1  0  0  0  0
  8 11  2  0  0  0  0
  8 17  1  0  0  0  0
  9 19  1  0  0  0  0
  9 29  1  0  0  0  0
  9 30  1  0  0  0  0
  9 31  1  0  0  0  0
 10 22  1  0  0  0  0
 10 26  1  0  0  0  0
 10 32  1  0  0  0  0
 10 33  1  0  0  0  0
 11 13  1  0  0  0  0
 11 34  1  0  0  0  0
 12 13  2  0  0  0  0
 12 14  1  0  0  0  0
 12 35  1  0  0  0  0
 13 36  1  0  0  0  0
 14 17  2  0  0  0  0
 14 37  1  0  0  0  0
 15 16  2  0  0  0  0
 16 19  1  0  0  0  0
 17 38  1  0  0  0  0
 21 22  1  0  0  0  0
 21 39  1  0  0  0  0
 22 23  1  0  0  0  0
 22 40  1  0  0  0  0
 23 24  1  0  0  0  0
 23 41  1  0  0  0  0
 23 42  1  0  0  0  0
 24 25  1  0  0  0  0
 24 43  1  0  0  0  0
 24 44  1  0  0  0  0
 25 26  1  0  0  0  0
 26 45  1  0  0  0  0
 26 46  1  0  0  0  0
M  END
$$$$
