p38a_3flz
 OpenBabel02232411163D
Structure written by MMmdl.
 46 49  0  0  0  0  0  0  0  0999 V2000
   35.1400   35.1340   19.1350 O   0  0  0  0  0  0  0  0  0  0  0  0
   35.0050   37.2660   20.3280 C   0  0  0  0  0  0  0  0  0  0  0  0
   34.2880   37.1610   22.7040 C   0  0  0  0  0  0  0  0  0  0  0  0
   34.6700   37.9230   21.5590 C   0  0  0  0  0  0  0  0  0  0  0  0
   34.6930   39.3360   21.7060 C   0  0  0  0  0  0  0  0  0  0  0  0
   34.0950   39.1360   23.9710 C   0  0  0  0  0  0  0  0  0  0  0  0
   34.9100   35.9170   20.2620 C   0  0  0  0  0  0  0  0  0  0  0  0
   36.1390   35.5860   18.2550 C   0  0  0  0  0  0  0  0  0  0  0  0
   33.8150   34.9820   23.8250 C   0  0  0  0  0  0  0  0  0  0  0  0
   31.9430   38.7080   26.3010 C   0  0  0  0  0  0  0  0  0  0  0  0
   37.4160   35.9560   18.6960 C   0  0  0  0  0  0  0  0  0  0  0  0
   38.0510   36.2360   16.3700 C   0  0  0  0  0  0  0  0  0  0  0  0
   38.3730   36.2790   17.7310 C   0  0  0  0  0  0  0  0  0  0  0  0
   36.7690   35.8550   15.9580 C   0  0  0  0  0  0  0  0  0  0  0  0
   34.2370   33.8670   21.3200 O   0  0  0  0  0  0  0  0  0  0  0  0
   34.4320   35.0610   21.3770 C   0  0  0  0  0  0  0  0  0  0  0  0
   35.7920   35.5240   16.9000 C   0  0  0  0  0  0  0  0  0  0  0  0
   34.4160   39.9520   22.8610 N   0  0  0  0  0  0  0  0  0  0  0  0
   34.1860   35.7650   22.6130 N   0  0  0  0  0  0  0  0  0  0  0  0
   34.0020   37.7620   23.9080 N   0  0  0  0  0  0  0  0  0  0  0  0
   33.9120   39.8060   25.1590 N   0  0  0  0  0  0  0  0  0  0  0  0
   33.3830   39.2460   26.4380 C   0  0  0  0  0  0  0  0  0  0  0  0
   34.3080   38.1680   27.0300 C   0  0  0  0  0  0  0  0  0  0  0  0
   33.7230   37.6600   28.3540 C   0  0  0  0  0  0  0  0  0  0  0  0
   32.3650   37.1860   28.1950 O   0  0  0  0  0  0  0  0  0  0  0  0
   31.4650   38.1820   27.6610 C   0  0  0  0  0  0  0  0  0  0  0  0
   35.3400   37.8790   19.4860 H   0  0  0  0  0  0  0  0  0  0  0  0
   34.9370   39.9720   20.8380 H   0  0  0  0  0  0  0  0  0  0  0  0
   33.8340   33.8840   23.5970 H   0  0  0  0  0  0  0  0  0  0  0  0
   34.5420   35.1960   24.6540 H   0  0  0  0  0  0  0  0  0  0  0  0
   32.7860   35.2710   24.1680 H   0  0  0  0  0  0  0  0  0  0  0  0
   31.2640   39.5220   25.9540 H   0  0  0  0  0  0  0  0  0  0  0  0
   31.9140   37.8800   25.5510 H   0  0  0  0  0  0  0  0  0  0  0  0
   37.6590   36.0150   19.7540 H   0  0  0  0  0  0  0  0  0  0  0  0
   38.7930   36.5330   15.6340 H   0  0  0  0  0  0  0  0  0  0  0  0
   39.3760   36.5870   18.0310 H   0  0  0  0  0  0  0  0  0  0  0  0
   36.5210   35.8420   14.8960 H   0  0  0  0  0  0  0  0  0  0  0  0
   34.7810   35.2660   16.5800 H   0  0  0  0  0  0  0  0  0  0  0  0
   33.8970   40.8480   25.1340 H   0  0  0  0  0  0  0  0  0  0  0  0
   33.3710   40.1370   27.1390 H   0  0  0  0  0  0  0  0  0  0  0  0
   34.4140   37.3130   26.3190 H   0  0  0  0  0  0  0  0  0  0  0  0
   35.3220   38.5980   27.2130 H   0  0  0  0  0  0  0  0  0  0  0  0
   34.2550   36.7430   28.7020 H   0  0  0  0  0  0  0  0  0  0  0  0
   33.7370   38.4580   29.1320 H   0  0  0  0  0  0  0  0  0  0  0  0
   31.3680   39.0110   28.3990 H   0  0  0  0  0  0  0  0  0  0  0  0
   30.5130   37.6110   27.5620 H   0  0  0  0  0  0  0  0  0  0  0  0
  1  7  1  0  0  0  0
  1  8  1  0  0  0  0
  2  4  1  0  0  0  0
  2  7  2  0  0  0  0
  2 27  1  0  0  0  0
  3  4  2  0  0  0  0
  3 19  1  0  0  0  0
  3 20  1  0  0  0  0
  4  5  1  0  0  0  0
  5 18  2  0  0  0  0
  5 28  1  0  0  0  0
  6 18  1  0  0  0  0
  6 20  2  0  0  0  0
  6 21  1  0  0  0  0
  7 16  1  0  0  0  0
  8 11  2  0  0  0  0
  8 17  1  0  0  0  0
  9 19  1  0  0  0  0
  9 29  1  0  0  0  0
  9 30  1  0  0  0  0
  9 31  1  0  0  0  0
 10 22  1  0  0  0  0
 10 26  1  0  0  0  0
 10 32  1  0  0  0  0
 10 33  1  0  0  0  0
 11 13  1  0  0  0  0
 11 34  1  0  0  0  0
 12 13  2  0  0  0  0
 12 14  1  0  0  0  0
 12 35  1  0  0  0  0
 13 36  1  0  0  0  0
 14 17  2  0  0  0  0
 14 37  1  0  0  0  0
 15 16  2  0  0  0  0
 16 19  1  0  0  0  0
 17 38  1  0  0  0  0
 21 22  1  0  0  0  0
 21 39  1  0  0  0  0
 22 23  1  0  0  0  0
 22 40  1  0  0  0  0
 23 24  1  0  0  0  0
 23 41  1  0  0  0  0
 23 42  1  0  0  0  0
 24 25  1  0  0  0  0
 24 43  1  0  0  0  0
 24 44  1  0  0  0  0
 25 26  1  0  0  0  0
 26 45  1  0  0  0  0
 26 46  1  0  0  0  0
M  END
$$$$
