18638-1
 OpenBabel02232411163D
Structure written by MMmdl.
 52 53  0  0  0  0  0  0  0  0999 V2000
   23.9990   12.4900   30.3270 C   0  0  0  0  0  0  0  0  0  0  0  0
   23.5490   11.0470   30.4500 C   0  0  0  0  0  0  0  0  0  0  0  0
   22.2890   11.1560   31.2300 O   0  0  0  0  0  0  0  0  0  0  0  0
   21.6590   10.0230   31.6020 C   0  0  0  0  0  0  0  0  0  0  0  0
   22.1440    8.8240   31.1940 N   0  0  0  0  0  0  0  0  0  0  0  0
   21.4150    7.6960   31.5380 C   0  0  0  0  0  0  0  0  0  0  0  0
   20.2550    7.7540   32.3050 C   0  0  0  0  0  0  0  0  0  0  0  0
   19.7590    9.0130   32.7350 C   0  0  0  0  0  0  0  0  0  0  0  0
   18.5940    9.0700   33.4590 N   0  0  0  0  0  0  0  0  0  0  0  0
   20.4760   10.2000   32.3810 C   0  0  0  0  0  0  0  0  0  0  0  0
   20.0660   11.5060   32.7270 C   0  0  0  0  0  0  0  0  0  0  0  0
   19.7750   12.6010   32.9760 N   0  0  0  0  0  0  0  0  0  0  0  0
   21.9660    6.5050   31.0010 N   0  0  0  0  0  0  0  0  0  0  0  0
   21.2820    5.2730   30.9040 C   0  0  0  0  0  0  0  0  0  0  0  0
   20.2020    5.0800   31.4230 O   0  0  0  0  0  0  0  0  0  0  0  0
   21.9660    4.2450   30.0170 C   0  0  0  0  0  0  0  0  0  0  0  0
   23.3250    3.7970   30.4630 C   0  0  0  0  0  0  0  0  0  0  0  0
   24.4900    4.4890   30.0210 C   0  0  0  0  0  0  0  0  0  0  0  0
   24.1900    5.6240   29.2750 O   0  0  0  0  0  0  0  0  0  0  0  0
   25.2440    6.6110   29.1110 C   0  0  0  0  0  0  0  0  0  0  0  0
   25.7680    3.9990   30.2720 C   0  0  0  0  0  0  0  0  0  0  0  0
   25.9420    2.8260   31.0290 C   0  0  0  0  0  0  0  0  0  0  0  0
   27.5720    2.1930   31.1970 S   0  0  0  0  0  0  0  0  0  0  0  0
   28.5610    3.2910   31.0640 O   0  0  0  0  0  0  0  0  0  0  0  0
   27.7100    1.5230   32.5110 O   0  0  0  0  0  0  0  0  0  0  0  0
   27.7160    1.0660   29.8870 C   0  0  0  0  0  0  0  0  0  0  0  0
   24.8000    2.1920   31.5390 C   0  0  0  0  0  0  0  0  0  0  0  0
   23.4970    2.6590   31.2350 C   0  0  0  0  0  0  0  0  0  0  0  0
   25.0420    1.1250   32.3680 O   0  0  0  0  0  0  0  0  0  0  0  0
   23.9450    0.2050   32.6350 C   0  0  0  0  0  0  0  0  0  0  0  0
   24.9170   12.5250   29.6870 H   0  0  0  0  0  0  0  0  0  0  0  0
   23.2140   13.1130   29.8370 H   0  0  0  0  0  0  0  0  0  0  0  0
   24.2370   12.9290   31.3210 H   0  0  0  0  0  0  0  0  0  0  0  0
   23.2950   10.5930   29.4660 H   0  0  0  0  0  0  0  0  0  0  0  0
   24.2650   10.4210   31.0280 H   0  0  0  0  0  0  0  0  0  0  0  0
   19.7030    6.8470   32.5650 H   0  0  0  0  0  0  0  0  0  0  0  0
   18.0890    8.2040   33.7290 H   0  0  0  0  0  0  0  0  0  0  0  0
   18.1890    9.9610   33.7470 H   0  0  0  0  0  0  0  0  0  0  0  0
   22.8800    6.6010   30.5010 H   0  0  0  0  0  0  0  0  0  0  0  0
   21.2970    3.3460   29.9430 H   0  0  0  0  0  0  0  0  0  0  0  0
   22.0580    4.7030   28.9900 H   0  0  0  0  0  0  0  0  0  0  0  0
   24.6710    7.4830   28.7190 H   0  0  0  0  0  0  0  0  0  0  0  0
   25.7160    6.8460   30.0880 H   0  0  0  0  0  0  0  0  0  0  0  0
   25.9790    6.2370   28.3670 H   0  0  0  0  0  0  0  0  0  0  0  0
   26.6380    4.5220   29.8550 H   0  0  0  0  0  0  0  0  0  0  0  0
   27.6290    1.5700   28.8880 H   0  0  0  0  0  0  0  0  0  0  0  0
   28.7000    0.5280   29.8850 H   0  0  0  0  0  0  0  0  0  0  0  0
   26.9190    0.2780   29.9080 H   0  0  0  0  0  0  0  0  0  0  0  0
   22.6230    2.1110   31.5940 H   0  0  0  0  0  0  0  0  0  0  0  0
   23.5520   -0.1950   31.6750 H   0  0  0  0  0  0  0  0  0  0  0  0
   23.1610    0.6990   33.2450 H   0  0  0  0  0  0  0  0  0  0  0  0
   24.4600   -0.5960   33.2180 H   0  0  0  0  0  0  0  0  0  0  0  0
  1  2  1  0  0  0  0
  1 31  1  0  0  0  0
  1 32  1  0  0  0  0
  1 33  1  0  0  0  0
  2  3  1  0  0  0  0
  2 34  1  0  0  0  0
  2 35  1  0  0  0  0
  3  4  1  0  0  0  0
  4 10  2  0  0  0  0
  4  5  1  0  0  0  0
  5  6  2  0  0  0  0
  6  7  1  0  0  0  0
  6 13  1  0  0  0  0
  7  8  2  0  0  0  0
  7 36  1  0  0  0  0
  8  9  1  0  0  0  0
  8 10  1  0  0  0  0
  9 37  1  0  0  0  0
  9 38  1  0  0  0  0
 10 11  1  0  0  0  0
 11 12  3  0  0  0  0
 13 14  1  0  0  0  0
 13 39  1  0  0  0  0
 14 15  2  0  0  0  0
 14 16  1  0  0  0  0
 16 17  1  0  0  0  0
 16 40  1  0  0  0  0
 16 41  1  0  0  0  0
 17 28  2  0  0  0  0
 17 18  1  0  0  0  0
 18 19  1  0  0  0  0
 18 21  2  0  0  0  0
 19 20  1  0  0  0  0
 20 42  1  0  0  0  0
 20 43  1  0  0  0  0
 20 44  1  0  0  0  0
 21 22  1  0  0  0  0
 21 45  1  0  0  0  0
 22 23  1  0  0  0  0
 22 27  2  0  0  0  0
 23 24  2  0  0  0  0
 23 25  2  0  0  0  0
 23 26  1  0  0  0  0
 26 46  1  0  0  0  0
 26 47  1  0  0  0  0
 26 48  1  0  0  0  0
 27 28  1  0  0  0  0
 27 29  1  0  0  0  0
 28 49  1  0  0  0  0
 29 30  1  0  0  0  0
 30 50  1  0  0  0  0
 30 51  1  0  0  0  0
 30 52  1  0  0  0  0
M  END
$$$$
