20667(2qbp)
 OpenBabel02232411173D
Structure written by MMmdl.
 60 63  0  0  0  0  0  0  0  0999 V2000
   42.4630   18.0090   12.6380 O   0  0  0  0  0  0  0  0  0  0  0  0
   41.3220   17.7570   13.0420 C   0  0  0  0  0  0  0  0  0  0  0  0
   40.2750   18.3700   12.7420 O   0  5  0  0  0  0  0  0  0  0  0  0
   41.1320   16.5710   14.0330 C   0  0  0  0  0  0  0  0  0  0  0  0
   42.4570   15.9560   13.9750 O   0  0  0  0  0  0  0  0  0  0  0  0
   42.6550   14.9660   14.8850 C   0  0  0  0  0  0  0  0  0  0  0  0
   42.0630   13.6490   14.7570 C   0  0  0  0  0  0  0  0  0  0  0  0
   40.9130   13.2950   13.2810 Br  0  0  0  0  0  0  0  0  0  0  0  0
   42.4400   12.7510   15.7220 C   0  0  0  0  0  0  0  0  0  0  0  0
   42.0320   11.3860   15.9920 C   0  0  0  0  0  0  0  0  0  0  0  0
   42.7300   10.5620   16.9120 C   0  0  0  0  0  0  0  0  0  0  0  0
   42.2750    9.2770   17.1860 C   0  0  0  0  0  0  0  0  0  0  0  0
   41.1490    8.7350   16.5480 C   0  0  0  0  0  0  0  0  0  0  0  0
   40.4720    9.5230   15.6070 C   0  0  0  0  0  0  0  0  0  0  0  0
   39.4050    9.0460   14.8040 N   0  0  0  0  0  0  0  0  0  0  0  0
   38.5430    7.9150   15.2100 C   0  0  0  0  0  0  0  0  0  0  0  0
   37.0710    8.1510   14.7850 C   0  0  0  0  0  0  0  0  0  0  0  0
   36.8570    8.0590   13.2640 C   0  0  0  0  0  0  0  0  0  0  0  0
   37.4000    6.8070   12.6720 N   0  0  0  0  0  0  0  0  0  0  0  0
   36.3760    5.5380   12.2220 S   0  0  0  0  0  0  0  0  0  0  0  0
   36.9790    4.9030   11.0470 O   0  0  0  0  0  0  0  0  0  0  0  0
   35.1010    6.1890   11.8770 O   0  0  0  0  0  0  0  0  0  0  0  0
   36.2780    4.3230   13.4870 C   0  0  0  0  0  0  0  0  0  0  0  0
   35.1430    4.4430   14.4490 C   0  0  0  0  0  0  0  0  0  0  0  0
   33.8970    3.8620   14.1600 C   0  0  0  0  0  0  0  0  0  0  0  0
   32.8730    3.8880   15.1120 C   0  0  0  0  0  0  0  0  0  0  0  0
   33.0690    4.5120   16.3480 C   0  0  0  0  0  0  0  0  0  0  0  0
   34.3100    5.0840   16.6420 C   0  0  0  0  0  0  0  0  0  0  0  0
   35.3430    5.0430   15.7030 C   0  0  0  0  0  0  0  0  0  0  0  0
   38.8110    6.5380   13.0610 C   0  0  0  0  0  0  0  0  0  0  0  0
   39.0500    6.5940   14.5770 C   0  0  0  0  0  0  0  0  0  0  0  0
   40.9010   10.8490   15.3680 C   0  0  0  0  0  0  0  0  0  0  0  0
   43.6040   13.5470   16.7680 S   0  0  0  0  0  0  0  0  0  0  0  0
   43.5430   15.0730   15.9220 C   0  0  0  0  0  0  0  0  0  0  0  0
   44.3910   16.2640   16.3790 C   0  0  0  0  0  0  0  0  0  0  0  0
   44.9960   16.0970   17.4630 O   0  0  0  0  0  0  0  0  0  0  0  0
   44.4590   17.2540   15.6510 O   0  5  0  0  0  0  0  0  0  0  0  0
   40.3560   15.8630   13.6770 H   0  0  0  0  0  0  0  0  0  0  0  0
   40.9050   16.9110   15.0630 H   0  0  0  0  0  0  0  0  0  0  0  0
   43.6300   10.9080   17.4230 H   0  0  0  0  0  0  0  0  0  0  0  0
   42.7980    8.6520   17.9150 H   0  0  0  0  0  0  0  0  0  0  0  0
   40.8360    7.7180   16.7670 H   0  0  0  0  0  0  0  0  0  0  0  0
   38.9460    9.7280   14.1850 H   0  0  0  0  0  0  0  0  0  0  0  0
   38.5670    7.7790   16.3270 H   0  0  0  0  0  0  0  0  0  0  0  0
   36.4490    7.3820   15.2980 H   0  0  0  0  0  0  0  0  0  0  0  0
   36.7300    9.1520   15.1340 H   0  0  0  0  0  0  0  0  0  0  0  0
   35.7620    8.1340   13.0430 H   0  0  0  0  0  0  0  0  0  0  0  0
   37.4020    8.9130   12.7700 H   0  0  0  0  0  0  0  0  0  0  0  0
   36.2370    3.2940   13.0180 H   0  0  0  0  0  0  0  0  0  0  0  0
   37.2460    4.3080   14.0730 H   0  0  0  0  0  0  0  0  0  0  0  0
   33.7240    3.3600   13.2030 H   0  0  0  0  0  0  0  0  0  0  0  0
   31.9200    3.4000   14.8960 H   0  0  0  0  0  0  0  0  0  0  0  0
   32.2670    4.5260   17.0900 H   0  0  0  0  0  0  0  0  0  0  0  0
   34.4890    5.5370   17.6230 H   0  0  0  0  0  0  0  0  0  0  0  0
   36.3250    5.4450   15.9730 H   0  0  0  0  0  0  0  0  0  0  0  0
   39.1410    5.5420   12.6760 H   0  0  0  0  0  0  0  0  0  0  0  0
   39.4420    7.3440   12.5900 H   0  0  0  0  0  0  0  0  0  0  0  0
   40.1500    6.4990   14.7590 H   0  0  0  0  0  0  0  0  0  0  0  0
   38.5520    5.7450   15.0940 H   0  0  0  0  0  0  0  0  0  0  0  0
   40.3110   11.4330   14.6630 H   0  0  0  0  0  0  0  0  0  0  0  0
  1  2  2  0  0  0  0
  2  3  1  0  0  0  0
  2  4  1  0  0  0  0
  4  5  1  0  0  0  0
  4 38  1  0  0  0  0
  4 39  1  0  0  0  0
  5  6  1  0  0  0  0
  6 34  2  0  0  0  0
  6  7  1  0  0  0  0
  7  8  1  0  0  0  0
  7  9  2  0  0  0  0
  9 10  1  0  0  0  0
  9 33  1  0  0  0  0
 10 32  2  0  0  0  0
 10 11  1  0  0  0  0
 11 12  2  0  0  0  0
 11 40  1  0  0  0  0
 12 13  1  0  0  0  0
 12 41  1  0  0  0  0
 13 14  2  0  0  0  0
 13 42  1  0  0  0  0
 14 15  1  0  0  0  0
 14 32  1  0  0  0  0
 15 16  1  0  0  0  0
 15 43  1  0  0  0  0
 16 31  1  0  0  0  0
 16 17  1  0  0  0  0
 16 44  1  0  0  0  0
 17 18  1  0  0  0  0
 17 45  1  0  0  0  0
 17 46  1  0  0  0  0
 18 19  1  0  0  0  0
 18 47  1  0  0  0  0
 18 48  1  0  0  0  0
 19 20  1  0  0  0  0
 19 30  1  0  0  0  0
 20 21  2  0  0  0  0
 20 22  2  0  0  0  0
 20 23  1  0  0  0  0
 23 24  1  0  0  0  0
 23 49  1  0  0  0  0
 23 50  1  0  0  0  0
 24 29  2  0  0  0  0
 24 25  1  0  0  0  0
 25 26  2  0  0  0  0
 25 51  1  0  0  0  0
 26 27  1  0  0  0  0
 26 52  1  0  0  0  0
 27 28  2  0  0  0  0
 27 53  1  0  0  0  0
 28 29  1  0  0  0  0
 28 54  1  0  0  0  0
 29 55  1  0  0  0  0
 30 31  1  0  0  0  0
 30 56  1  0  0  0  0
 30 57  1  0  0  0  0
 31 58  1  0  0  0  0
 31 59  1  0  0  0  0
 32 60  1  0  0  0  0
 33 34  1  0  0  0  0
 34 35  1  0  0  0  0
 35 36  2  0  0  0  0
 35 37  1  0  0  0  0
M  CHG  2   3  -1  37  -1
M  END
$$$$
