p38a_3flw
 OpenBabel02232411163D
Structure written by MMmdl.
 49 51  0  0  0  0  0  0  0  0999 V2000
   38.2870   36.5520   17.1350 C   0  0  0  0  0  0  0  0  0  0  0  0
   37.6450   36.7210   15.9000 C   0  0  0  0  0  0  0  0  0  0  0  0
   33.1000   39.9550   27.3850 C   0  0  0  0  0  0  0  0  0  0  0  0
   34.4210   40.5530   27.8880 C   0  0  0  0  0  0  0  0  0  0  0  0
   31.8660   38.5130   25.7060 C   0  0  0  0  0  0  0  0  0  0  0  0
   34.1390   34.9610   23.7000 C   0  0  0  0  0  0  0  0  0  0  0  0
   38.0230   35.9480   19.3940 F   0  0  0  0  0  0  0  0  0  0  0  0
   37.4960   36.0930   18.1850 C   0  0  0  0  0  0  0  0  0  0  0  0
   38.3500   37.2230   14.8890 F   0  0  0  0  0  0  0  0  0  0  0  0
   36.2960   36.4290   15.6860 C   0  0  0  0  0  0  0  0  0  0  0  0
   35.5260   35.9570   16.7540 C   0  0  0  0  0  0  0  0  0  0  0  0
   36.1320   35.7810   18.0010 C   0  0  0  0  0  0  0  0  0  0  0  0
   35.3960   35.1580   19.0180 O   0  0  0  0  0  0  0  0  0  0  0  0
   35.0800   35.9600   20.1120 C   0  0  0  0  0  0  0  0  0  0  0  0
   35.1140   37.3110   20.1780 C   0  0  0  0  0  0  0  0  0  0  0  0
   34.7910   37.9500   21.4250 C   0  0  0  0  0  0  0  0  0  0  0  0
   34.7470   39.3590   21.5860 C   0  0  0  0  0  0  0  0  0  0  0  0
   34.4690   39.9510   22.7580 N   0  0  0  0  0  0  0  0  0  0  0  0
   34.6490   35.0780   21.2300 C   0  0  0  0  0  0  0  0  0  0  0  0
   34.4650   33.8830   21.1550 O   0  0  0  0  0  0  0  0  0  0  0  0
   34.4490   35.7600   22.4810 N   0  0  0  0  0  0  0  0  0  0  0  0
   34.5010   37.1600   22.5780 C   0  0  0  0  0  0  0  0  0  0  0  0
   34.2380   37.7360   23.7960 N   0  0  0  0  0  0  0  0  0  0  0  0
   34.2300   39.1120   23.8610 C   0  0  0  0  0  0  0  0  0  0  0  0
   34.0080   39.7270   25.0880 N   0  0  0  0  0  0  0  0  0  0  0  0
   33.2580   39.0120   26.1730 C   0  0  0  0  0  0  0  0  0  0  0  0
   31.1810   39.4560   24.7110 C   0  0  0  0  0  0  0  0  0  0  0  0
   29.8470   38.9920   24.4530 O   0  0  0  0  0  0  0  0  0  0  0  0
   34.2080   41.2640   29.1230 O   0  0  0  0  0  0  0  0  0  0  0  0
   39.3410   36.8040   17.2760 H   0  0  0  0  0  0  0  0  0  0  0  0
   32.6340   39.3660   28.2150 H   0  0  0  0  0  0  0  0  0  0  0  0
   32.4130   40.7910   27.1190 H   0  0  0  0  0  0  0  0  0  0  0  0
   35.1560   39.7630   28.1610 H   0  0  0  0  0  0  0  0  0  0  0  0
   34.8400   41.2740   27.1490 H   0  0  0  0  0  0  0  0  0  0  0  0
   31.9860   37.5030   25.2380 H   0  0  0  0  0  0  0  0  0  0  0  0
   31.2130   38.3760   26.6020 H   0  0  0  0  0  0  0  0  0  0  0  0
   34.8400   35.2400   24.5340 H   0  0  0  0  0  0  0  0  0  0  0  0
   33.0890   35.1700   24.0400 H   0  0  0  0  0  0  0  0  0  0  0  0
   34.2470   33.8670   23.4830 H   0  0  0  0  0  0  0  0  0  0  0  0
   35.8320   36.5810   14.7090 H   0  0  0  0  0  0  0  0  0  0  0  0
   34.4620   35.7440   16.6070 H   0  0  0  0  0  0  0  0  0  0  0  0
   35.3840   37.9420   19.3290 H   0  0  0  0  0  0  0  0  0  0  0  0
   34.9240   40.0170   20.7190 H   0  0  0  0  0  0  0  0  0  0  0  0
   33.8400   40.7580   25.0740 H   0  0  0  0  0  0  0  0  0  0  0  0
   33.8790   38.1230   26.4790 H   0  0  0  0  0  0  0  0  0  0  0  0
   31.1530   40.4980   25.0980 H   0  0  0  0  0  0  0  0  0  0  0  0
   31.6500   39.4050   23.7050 H   0  0  0  0  0  0  0  0  0  0  0  0
   29.2170   39.5300   24.9940 H   0  0  0  0  0  0  0  0  0  0  0  0
   33.4510   41.9190   28.9760 H   0  0  0  0  0  0  0  0  0  0  0  0
  1  2  2  0  0  0  0
  1  8  1  0  0  0  0
  1 30  1  0  0  0  0
  2  9  1  0  0  0  0
  2 10  1  0  0  0  0
  3  4  1  0  0  0  0
  3 26  1  0  0  0  0
  3 31  1  0  0  0  0
  3 32  1  0  0  0  0
  4 29  1  0  0  0  0
  4 33  1  0  0  0  0
  4 34  1  0  0  0  0
  5 26  1  0  0  0  0
  5 27  1  0  0  0  0
  5 35  1  0  0  0  0
  5 36  1  0  0  0  0
  6 21  1  0  0  0  0
  6 37  1  0  0  0  0
  6 38  1  0  0  0  0
  6 39  1  0  0  0  0
  7  8  1  0  0  0  0
  8 12  2  0  0  0  0
 10 11  2  0  0  0  0
 10 40  1  0  0  0  0
 11 12  1  0  0  0  0
 11 41  1  0  0  0  0
 12 13  1  0  0  0  0
 13 14  1  0  0  0  0
 14 15  2  0  0  0  0
 14 19  1  0  0  0  0
 15 16  1  0  0  0  0
 15 42  1  0  0  0  0
 16 17  2  0  0  0  0
 16 22  1  0  0  0  0
 17 18  1  0  0  0  0
 17 43  1  0  0  0  0
 18 24  2  0  0  0  0
 19 20  2  0  0  0  0
 19 21  1  0  0  0  0
 21 22  1  0  0  0  0
 22 23  2  0  0  0  0
 23 24  1  0  0  0  0
 24 25  1  0  0  0  0
 25 26  1  0  0  0  0
 25 44  1  0  0  0  0
 26 45  1  0  0  0  0
 27 28  1  0  0  0  0
 27 46  1  0  0  0  0
 27 47  1  0  0  0  0
 28 48  1  0  0  0  0
 29 49  1  0  0  0  0
M  END
$$$$
