p38a_3fly
 OpenBabel02232411163D
Structure written by MMmdl.
 41 43  0  0  0  0  0  0  0  0999 V2000
   34.6600   39.2940   21.5300 C   0  0  0  0  0  0  0  0  0  0  0  0
   34.1400   37.0980   22.4190 C   0  0  0  0  0  0  0  0  0  0  0  0
   34.2870   39.8810   22.6760 N   0  0  0  0  0  0  0  0  0  0  0  0
   34.6340   37.8860   21.3370 C   0  0  0  0  0  0  0  0  0  0  0  0
   35.0850   37.2510   20.1300 C   0  0  0  0  0  0  0  0  0  0  0  0
   35.0340   35.9020   20.0460 C   0  0  0  0  0  0  0  0  0  0  0  0
   34.4810   35.0150   21.1040 C   0  0  0  0  0  0  0  0  0  0  0  0
   33.8440   39.0380   23.7170 C   0  0  0  0  0  0  0  0  0  0  0  0
   32.7690   38.9160   25.9940 C   0  0  0  0  0  0  0  0  0  0  0  0
   32.9830   39.6700   27.3130 C   0  0  0  0  0  0  0  0  0  0  0  0
   31.2850   38.8590   25.6040 C   0  0  0  0  0  0  0  0  0  0  0  0
   36.1710   35.7470   17.9750 C   0  0  0  0  0  0  0  0  0  0  0  0
   35.5650   35.9230   16.7270 C   0  0  0  0  0  0  0  0  0  0  0  0
   36.3310   36.4170   15.6660 C   0  0  0  0  0  0  0  0  0  0  0  0
   37.6750   36.7260   15.8860 C   0  0  0  0  0  0  0  0  0  0  0  0
   38.3150   36.5590   17.1220 C   0  0  0  0  0  0  0  0  0  0  0  0
   37.5280   36.0840   18.1670 C   0  0  0  0  0  0  0  0  0  0  0  0
   38.3740   37.2450   14.8800 F   0  0  0  0  0  0  0  0  0  0  0  0
   38.0490   35.9470   19.3790 F   0  0  0  0  0  0  0  0  0  0  0  0
   35.4520   35.0980   18.9860 O   0  0  0  0  0  0  0  0  0  0  0  0
   34.3740   33.8100   21.0250 O   0  0  0  0  0  0  0  0  0  0  0  0
   34.0560   35.7000   22.2930 N   0  0  0  0  0  0  0  0  0  0  0  0
   33.5040   34.9060   23.4270 C   0  0  0  0  0  0  0  0  0  0  0  0
   33.7380   37.6650   23.6010 N   0  0  0  0  0  0  0  0  0  0  0  0
   33.5630   39.6220   24.9320 N   0  0  0  0  0  0  0  0  0  0  0  0
   34.9890   39.9540   20.7100 H   0  0  0  0  0  0  0  0  0  0  0  0
   35.4630   37.8840   19.3230 H   0  0  0  0  0  0  0  0  0  0  0  0
   33.1700   37.8680   26.1000 H   0  0  0  0  0  0  0  0  0  0  0  0
   34.0690   39.7360   27.5570 H   0  0  0  0  0  0  0  0  0  0  0  0
   32.5690   40.7000   27.2600 H   0  0  0  0  0  0  0  0  0  0  0  0
   32.4720   39.1240   28.1390 H   0  0  0  0  0  0  0  0  0  0  0  0
   31.1260   38.1400   24.7710 H   0  0  0  0  0  0  0  0  0  0  0  0
   30.6860   38.5150   26.4790 H   0  0  0  0  0  0  0  0  0  0  0  0
   30.9160   39.8610   25.2970 H   0  0  0  0  0  0  0  0  0  0  0  0
   34.5050   35.6950   16.5750 H   0  0  0  0  0  0  0  0  0  0  0  0
   35.8660   36.5710   14.6900 H   0  0  0  0  0  0  0  0  0  0  0  0
   39.3660   36.8260   17.2670 H   0  0  0  0  0  0  0  0  0  0  0  0
   33.5300   33.8120   23.1850 H   0  0  0  0  0  0  0  0  0  0  0  0
   34.1050   35.0900   24.3580 H   0  0  0  0  0  0  0  0  0  0  0  0
   32.4410   35.2130   23.6260 H   0  0  0  0  0  0  0  0  0  0  0  0
   33.5630   40.6600   25.0030 H   0  0  0  0  0  0  0  0  0  0  0  0
  1  3  2  0  0  0  0
  1  4  1  0  0  0  0
  1 26  1  0  0  0  0
  2  4  2  0  0  0  0
  2 22  1  0  0  0  0
  2 24  1  0  0  0  0
  3  8  1  0  0  0  0
  4  5  1  0  0  0  0
  5  6  2  0  0  0  0
  5 27  1  0  0  0  0
  6  7  1  0  0  0  0
  6 20  1  0  0  0  0
  7 21  2  0  0  0  0
  7 22  1  0  0  0  0
  8 24  2  0  0  0  0
  8 25  1  0  0  0  0
  9 10  1  0  0  0  0
  9 11  1  0  0  0  0
  9 25  1  0  0  0  0
  9 28  1  0  0  0  0
 10 29  1  0  0  0  0
 10 30  1  0  0  0  0
 10 31  1  0  0  0  0
 11 32  1  0  0  0  0
 11 33  1  0  0  0  0
 11 34  1  0  0  0  0
 12 13  2  0  0  0  0
 12 17  1  0  0  0  0
 12 20  1  0  0  0  0
 13 14  1  0  0  0  0
 13 35  1  0  0  0  0
 14 15  2  0  0  0  0
 14 36  1  0  0  0  0
 15 16  1  0  0  0  0
 15 18  1  0  0  0  0
 16 17  2  0  0  0  0
 16 37  1  0  0  0  0
 17 19  1  0  0  0  0
 22 23  1  0  0  0  0
 23 38  1  0  0  0  0
 23 39  1  0  0  0  0
 23 40  1  0  0  0  0
 25 41  1  0  0  0  0
M  END
$$$$
