18639-1
 OpenBabel02232411163D
Structure written by MMmdl.
 48 49  0  0  0  0  0  0  0  0999 V2000
   24.4370   10.9480   30.7520 C   0  0  0  0  0  0  0  0  0  0  0  0
   23.1050   11.2870   30.1170 C   0  0  0  0  0  0  0  0  0  0  0  0
   22.0330   11.3430   31.1330 O   0  0  0  0  0  0  0  0  0  0  0  0
   21.4500   10.1920   31.5410 C   0  0  0  0  0  0  0  0  0  0  0  0
   21.9340    9.0040   31.1090 N   0  0  0  0  0  0  0  0  0  0  0  0
   21.2390    7.8600   31.4730 C   0  0  0  0  0  0  0  0  0  0  0  0
   20.1010    7.8910   32.2710 C   0  0  0  0  0  0  0  0  0  0  0  0
   19.6090    9.1420   32.7330 C   0  0  0  0  0  0  0  0  0  0  0  0
   18.4740    9.1770   33.5020 N   0  0  0  0  0  0  0  0  0  0  0  0
   20.2980   10.3430   32.3690 C   0  0  0  0  0  0  0  0  0  0  0  0
   19.8810   11.6410   32.7320 C   0  0  0  0  0  0  0  0  0  0  0  0
   19.5900   12.7340   32.9880 N   0  0  0  0  0  0  0  0  0  0  0  0
   21.8280    6.6970   30.9240 N   0  0  0  0  0  0  0  0  0  0  0  0
   21.2630    5.4060   30.8730 C   0  0  0  0  0  0  0  0  0  0  0  0
   20.1900    5.1310   31.3660 O   0  0  0  0  0  0  0  0  0  0  0  0
   22.0980    4.4160   30.0670 C   0  0  0  0  0  0  0  0  0  0  0  0
   23.4740    4.1710   30.6140 C   0  0  0  0  0  0  0  0  0  0  0  0
   24.5550    5.0500   30.2870 C   0  0  0  0  0  0  0  0  0  0  0  0
   24.1750    6.0990   29.4600 O   0  0  0  0  0  0  0  0  0  0  0  0
   25.1160    7.1940   29.2830 C   0  0  0  0  0  0  0  0  0  0  0  0
   25.8440    4.8210   30.7430 C   0  0  0  0  0  0  0  0  0  0  0  0
   26.1000    3.7060   31.5690 C   0  0  0  0  0  0  0  0  0  0  0  0
   27.4620    3.4680   32.0540 N   0  3  0  0  0  0  0  0  0  0  0  0
   27.6230    2.6480   32.9450 O   0  5  0  0  0  0  0  0  0  0  0  0
   28.3830    4.0960   31.5450 O   0  0  0  0  0  0  0  0  0  0  0  0
   25.0430    2.8260   31.9010 C   0  0  0  0  0  0  0  0  0  0  0  0
   23.7390    3.0670   31.4090 C   0  0  0  0  0  0  0  0  0  0  0  0
   25.4140    1.7880   32.7020 O   0  0  0  0  0  0  0  0  0  0  0  0
   24.4320    0.7390   32.9520 C   0  0  0  0  0  0  0  0  0  0  0  0
   25.2240   10.9090   29.9580 H   0  0  0  0  0  0  0  0  0  0  0  0
   24.7290   11.7140   31.5020 H   0  0  0  0  0  0  0  0  0  0  0  0
   24.4050    9.9480   31.2450 H   0  0  0  0  0  0  0  0  0  0  0  0
   23.0660   12.3420   29.7520 H   0  0  0  0  0  0  0  0  0  0  0  0
   22.8230   10.5620   29.3200 H   0  0  0  0  0  0  0  0  0  0  0  0
   19.5690    6.9730   32.5300 H   0  0  0  0  0  0  0  0  0  0  0  0
   17.9740    8.3020   33.7520 H   0  0  0  0  0  0  0  0  0  0  0  0
   18.0600   10.0610   33.7980 H   0  0  0  0  0  0  0  0  0  0  0  0
   22.7350    6.8560   30.4160 H   0  0  0  0  0  0  0  0  0  0  0  0
   21.5390    3.4430   30.0180 H   0  0  0  0  0  0  0  0  0  0  0  0
   22.1930    4.8210   29.0200 H   0  0  0  0  0  0  0  0  0  0  0  0
   25.4750    7.5710   30.2640 H   0  0  0  0  0  0  0  0  0  0  0  0
   25.9460    6.8530   28.6280 H   0  0  0  0  0  0  0  0  0  0  0  0
   24.4740    7.9510   28.7730 H   0  0  0  0  0  0  0  0  0  0  0  0
   26.6730    5.4800   30.4610 H   0  0  0  0  0  0  0  0  0  0  0  0
   22.9340    2.3680   31.6510 H   0  0  0  0  0  0  0  0  0  0  0  0
   25.0350    0.0090   33.5430 H   0  0  0  0  0  0  0  0  0  0  0  0
   23.5890    1.1400   33.5540 H   0  0  0  0  0  0  0  0  0  0  0  0
   24.0970    0.2930   31.9900 H   0  0  0  0  0  0  0  0  0  0  0  0
  1  2  1  0  0  0  0
  1 30  1  0  0  0  0
  1 31  1  0  0  0  0
  1 32  1  0  0  0  0
  2  3  1  0  0  0  0
  2 33  1  0  0  0  0
  2 34  1  0  0  0  0
  3  4  1  0  0  0  0
  4 10  2  0  0  0  0
  4  5  1  0  0  0  0
  5  6  2  0  0  0  0
  6  7  1  0  0  0  0
  6 13  1  0  0  0  0
  7  8  2  0  0  0  0
  7 35  1  0  0  0  0
  8  9  1  0  0  0  0
  8 10  1  0  0  0  0
  9 36  1  0  0  0  0
  9 37  1  0  0  0  0
 10 11  1  0  0  0  0
 11 12  3  0  0  0  0
 13 14  1  0  0  0  0
 13 38  1  0  0  0  0
 14 15  2  0  0  0  0
 14 16  1  0  0  0  0
 16 17  1  0  0  0  0
 16 39  1  0  0  0  0
 16 40  1  0  0  0  0
 17 27  2  0  0  0  0
 17 18  1  0  0  0  0
 18 19  1  0  0  0  0
 18 21  2  0  0  0  0
 19 20  1  0  0  0  0
 20 41  1  0  0  0  0
 20 42  1  0  0  0  0
 20 43  1  0  0  0  0
 21 22  1  0  0  0  0
 21 44  1  0  0  0  0
 22 23  1  0  0  0  0
 22 26  2  0  0  0  0
 23 24  1  0  0  0  0
 23 25  2  0  0  0  0
 26 27  1  0  0  0  0
 26 28  1  0  0  0  0
 27 45  1  0  0  0  0
 28 29  1  0  0  0  0
 29 46  1  0  0  0  0
 29 47  1  0  0  0  0
 29 48  1  0  0  0  0
M  CHG  2  23   1  24  -1
M  END
$$$$
