p38a_2u
 OpenBabel02232411163D
Structure written by MMmdl.
 64 68  0  0  0  0  0  0  0  0999 V2000
   38.2750   36.5340   17.1730 C   0  0  0  0  0  0  0  0  0  0  0  0
   34.5320   35.1020   21.2630 C   0  0  0  0  0  0  0  0  0  0  0  0
   37.4960   36.0830   18.2360 C   0  0  0  0  0  0  0  0  0  0  0  0
   33.9790   39.2030   23.7690 C   0  0  0  0  0  0  0  0  0  0  0  0
   34.6240   37.9790   21.3840 C   0  0  0  0  0  0  0  0  0  0  0  0
   35.0350   37.3150   20.1790 C   0  0  0  0  0  0  0  0  0  0  0  0
   37.6220   36.6840   15.9420 C   0  0  0  0  0  0  0  0  0  0  0  0
   36.2730   36.3810   15.7430 C   0  0  0  0  0  0  0  0  0  0  0  0
   35.5160   35.9170   16.8240 C   0  0  0  0  0  0  0  0  0  0  0  0
   34.2320   37.2140   22.5220 C   0  0  0  0  0  0  0  0  0  0  0  0
   34.6150   39.3940   21.5220 C   0  0  0  0  0  0  0  0  0  0  0  0
   35.0220   35.9630   20.1500 C   0  0  0  0  0  0  0  0  0  0  0  0
   36.1330   35.7590   18.0680 C   0  0  0  0  0  0  0  0  0  0  0  0
   38.0340   35.9570   19.4420 F   0  0  0  0  0  0  0  0  0  0  0  0
   35.4180   35.1370   19.0990 O   0  0  0  0  0  0  0  0  0  0  0  0
   34.3110   40.0190   22.6680 N   0  0  0  0  0  0  0  0  0  0  0  0
   34.4380   33.8950   21.1950 O   0  0  0  0  0  0  0  0  0  0  0  0
   34.1490   35.8060   22.4560 N   0  0  0  0  0  0  0  0  0  0  0  0
   33.9250   37.8230   23.7100 N   0  0  0  0  0  0  0  0  0  0  0  0
   33.6320   39.8190   24.9470 N   0  0  0  0  0  0  0  0  0  0  0  0
   39.3300   36.7930   17.3020 H   0  0  0  0  0  0  0  0  0  0  0  0
   35.3570   37.9260   19.3330 H   0  0  0  0  0  0  0  0  0  0  0  0
   35.7980   36.5150   14.7690 H   0  0  0  0  0  0  0  0  0  0  0  0
   34.4510   35.6950   16.6910 H   0  0  0  0  0  0  0  0  0  0  0  0
   34.8670   40.0270   20.6540 H   0  0  0  0  0  0  0  0  0  0  0  0
   33.7760   40.8410   25.0570 H   0  0  0  0  0  0  0  0  0  0  0  0
   38.3160   37.1770   14.9190 F   0  0  0  0  0  0  0  0  0  0  0  0
   32.2880   39.1250   28.4580 C   0  0  0  0  0  0  0  0  0  0  0  0
   32.4460   39.8380   27.1090 C   0  0  0  0  0  0  0  0  0  0  0  0
   33.4250   39.0500   26.2150 C   0  0  0  0  0  0  0  0  0  0  0  0
   34.7650   38.8320   26.9490 C   0  0  0  0  0  0  0  0  0  0  0  0
   34.5070   38.1680   28.3080 C   0  0  0  0  0  0  0  0  0  0  0  0
   33.5640   38.9180   29.1060 O   0  0  0  0  0  0  0  0  0  0  0  0
   31.7810   38.1410   28.3300 H   0  0  0  0  0  0  0  0  0  0  0  0
   31.7560   39.7710   29.1930 H   0  0  0  0  0  0  0  0  0  0  0  0
   32.8330   40.8720   27.2780 H   0  0  0  0  0  0  0  0  0  0  0  0
   31.4560   39.9160   26.6020 H   0  0  0  0  0  0  0  0  0  0  0  0
   32.9720   38.0510   25.9580 H   0  0  0  0  0  0  0  0  0  0  0  0
   35.4280   38.1690   26.3420 H   0  0  0  0  0  0  0  0  0  0  0  0
   35.2840   39.8100   27.0930 H   0  0  0  0  0  0  0  0  0  0  0  0
   34.1250   37.1290   28.1740 H   0  0  0  0  0  0  0  0  0  0  0  0
   35.4230   38.1870   28.9440 H   0  0  0  0  0  0  0  0  0  0  0  0
   34.4120   33.6360   25.6400 C   0  0  0  0  0  0  0  0  0  0  0  0
   34.8490   34.2190   24.2750 C   0  0  0  0  0  0  0  0  0  0  0  0
   33.6920   35.0430   23.6840 C   0  0  0  0  0  0  0  0  0  0  0  0
   32.4650   34.1590   23.3750 C   0  0  0  0  0  0  0  0  0  0  0  0
   32.3770   32.9690   24.3600 C   0  0  0  0  0  0  0  0  0  0  0  0
   34.6280   34.3910   26.4450 H   0  0  0  0  0  0  0  0  0  0  0  0
   35.0260   32.7130   25.8220 H   0  0  0  0  0  0  0  0  0  0  0  0
   35.1280   33.3850   23.5900 H   0  0  0  0  0  0  0  0  0  0  0  0
   35.7440   34.8610   24.4430 H   0  0  0  0  0  0  0  0  0  0  0  0
   33.3810   35.7990   24.4670 H   0  0  0  0  0  0  0  0  0  0  0  0
   31.5460   34.7870   23.4600 H   0  0  0  0  0  0  0  0  0  0  0  0
   32.5090   33.7380   22.3420 H   0  0  0  0  0  0  0  0  0  0  0  0
   31.2970   32.6870   24.4810 H   0  0  0  0  0  0  0  0  0  0  0  0
   32.9430   32.0940   23.9400 H   0  0  0  0  0  0  0  0  0  0  0  0
   32.9460   33.3430   25.6870 N   0  0  0  0  0  0  0  0  0  0  0  0
   32.3050   32.6350   27.1140 S   0  0  0  0  0  0  0  0  0  0  0  0
   31.0180   32.0000   26.7550 O   0  0  0  0  0  0  0  0  0  0  0  0
   32.1360   33.6850   28.1330 O   0  0  0  0  0  0  0  0  0  0  0  0
   33.4480   31.4540   27.6720 C   0  0  0  0  0  0  0  0  0  0  0  0
   33.7570   30.7380   26.8660 H   0  0  0  0  0  0  0  0  0  0  0  0
   34.3800   31.9160   28.0880 H   0  0  0  0  0  0  0  0  0  0  0  0
   33.0200   30.8220   28.4980 H   0  0  0  0  0  0  0  0  0  0  0  0
  1  3  2  0  0  0  0
  1  7  1  0  0  0  0
  1 21  1  0  0  0  0
  2 12  1  0  0  0  0
  2 17  2  0  0  0  0
  2 18  1  0  0  0  0
  3 13  1  0  0  0  0
  3 14  1  0  0  0  0
  4 16  2  0  0  0  0
  4 19  1  0  0  0  0
  4 20  1  0  0  0  0
  5  6  1  0  0  0  0
  5 10  1  0  0  0  0
  5 11  2  0  0  0  0
  6 12  2  0  0  0  0
  6 22  1  0  0  0  0
  7  8  2  0  0  0  0
  7 27  1  0  0  0  0
  8  9  1  0  0  0  0
  8 23  1  0  0  0  0
  9 13  2  0  0  0  0
  9 24  1  0  0  0  0
 10 18  1  0  0  0  0
 10 19  2  0  0  0  0
 11 16  1  0  0  0  0
 11 25  1  0  0  0  0
 12 15  1  0  0  0  0
 13 15  1  0  0  0  0
 18 45  1  0  0  0  0
 20 26  1  0  0  0  0
 20 30  1  0  0  0  0
 28 29  1  0  0  0  0
 28 33  1  0  0  0  0
 28 34  1  0  0  0  0
 28 35  1  0  0  0  0
 29 30  1  0  0  0  0
 29 36  1  0  0  0  0
 29 37  1  0  0  0  0
 30 31  1  0  0  0  0
 30 38  1  0  0  0  0
 31 32  1  0  0  0  0
 31 39  1  0  0  0  0
 31 40  1  0  0  0  0
 32 33  1  0  0  0  0
 32 41  1  0  0  0  0
 32 42  1  0  0  0  0
 43 44  1  0  0  0  0
 43 48  1  0  0  0  0
 43 49  1  0  0  0  0
 43 57  1  0  0  0  0
 44 45  1  0  0  0  0
 44 50  1  0  0  0  0
 44 51  1  0  0  0  0
 45 46  1  0  0  0  0
 45 52  1  0  0  0  0
 46 47  1  0  0  0  0
 46 53  1  0  0  0  0
 46 54  1  0  0  0  0
 47 55  1  0  0  0  0
 47 56  1  0  0  0  0
 47 57  1  0  0  0  0
 57 58  1  0  0  0  0
 58 59  2  0  0  0  0
 58 60  2  0  0  0  0
 58 61  1  0  0  0  0
 61 62  1  0  0  0  0
 61 63  1  0  0  0  0
 61 64  1  0  0  0  0
M  END
$$$$
