64
 OpenBabel02232411163D
Structure written by MMmdl.
 43 46  0  0  0  0  0  0  0  0999 V2000
    4.0020  -49.4650    6.4420 O   0  0  0  0  0  0  0  0  0  0  0  0
    3.1140  -48.6230    6.6780 C   0  0  0  0  0  0  0  0  0  0  0  0
    3.2650  -47.4860    7.1460 O   0  5  0  0  0  0  0  0  0  0  0  0
    1.6870  -49.1050    6.4110 C   0  0  0  0  0  0  0  0  0  0  0  0
    1.3950  -50.7850    6.8320 S   0  0  0  0  0  0  0  0  0  0  0  0
   -0.2990  -50.6720    6.4570 C   0  0  0  0  0  0  0  0  0  0  0  0
   -1.2570  -51.6720    6.5930 C   0  0  0  0  0  0  0  0  0  0  0  0
   -2.5530  -51.3310    6.2230 C   0  0  0  0  0  0  0  0  0  0  0  0
   -2.9130  -50.0680    5.7350 C   0  0  0  0  0  0  0  0  0  0  0  0
   -1.9360  -49.0830    5.6100 C   0  0  0  0  0  0  0  0  0  0  0  0
   -0.6100  -49.3730    5.9750 C   0  0  0  0  0  0  0  0  0  0  0  0
    0.5630  -48.4910    5.9630 C   0  0  0  0  0  0  0  0  0  0  0  0
    0.4420  -47.0710    5.5070 C   0  0  0  0  0  0  0  0  0  0  0  0
    0.3440  -46.0850    6.6800 C   0  0  0  0  0  0  0  0  0  0  0  0
   -0.8420  -46.3090    7.6090 C   0  0  0  0  0  0  0  0  0  0  0  0
   -2.0250  -45.7790    6.8980 O   0  0  0  0  0  0  0  0  0  0  0  0
   -3.2180  -45.8140    7.5620 C   0  0  0  0  0  0  0  0  0  0  0  0
   -5.7550  -45.6370    8.7660 C   0  0  0  0  0  0  0  0  0  0  0  0
   -4.7560  -46.3860    9.3380 C   0  0  0  0  0  0  0  0  0  0  0  0
   -3.4690  -46.4800    8.7480 C   0  0  0  0  0  0  0  0  0  0  0  0
   -1.0210  -52.6710    6.9690 H   0  0  0  0  0  0  0  0  0  0  0  0
   -3.7860  -52.5440    6.3370 Cl  0  0  0  0  0  0  0  0  0  0  0  0
   -3.9490  -49.8640    5.4560 H   0  0  0  0  0  0  0  0  0  0  0  0
   -2.2270  -48.0990    5.2350 H   0  0  0  0  0  0  0  0  0  0  0  0
   -0.4710  -46.9640    4.8690 H   0  0  0  0  0  0  0  0  0  0  0  0
    1.3330  -46.7880    4.8920 H   0  0  0  0  0  0  0  0  0  0  0  0
    0.2840  -45.0470    6.2780 H   0  0  0  0  0  0  0  0  0  0  0  0
    1.2780  -46.1920    7.2980 H   0  0  0  0  0  0  0  0  0  0  0  0
   -0.7500  -45.6960    8.5320 H   0  0  0  0  0  0  0  0  0  0  0  0
   -1.0420  -47.3830    7.7990 H   0  0  0  0  0  0  0  0  0  0  0  0
   -2.7310  -47.0910    9.2530 H   0  0  0  0  0  0  0  0  0  0  0  0
   -5.5320  -44.9780    7.5180 C   0  0  0  0  0  0  0  0  0  0  0  0
   -4.2590  -45.0650    6.8940 C   0  0  0  0  0  0  0  0  0  0  0  0
   -4.0570  -44.4570    5.6220 C   0  0  0  0  0  0  0  0  0  0  0  0
   -5.0750  -43.7690    5.0060 C   0  0  0  0  0  0  0  0  0  0  0  0
   -6.3500  -43.6800    5.6260 C   0  0  0  0  0  0  0  0  0  0  0  0
   -6.5760  -44.2660    6.8480 C   0  0  0  0  0  0  0  0  0  0  0  0
   -3.0890  -44.5710    5.1340 H   0  0  0  0  0  0  0  0  0  0  0  0
   -4.9210  -43.2950    4.0390 H   0  0  0  0  0  0  0  0  0  0  0  0
   -7.1460  -43.1480    5.1110 H   0  0  0  0  0  0  0  0  0  0  0  0
   -7.5570  -44.2110    7.3170 H   0  0  0  0  0  0  0  0  0  0  0  0
   -4.9440  -46.9310   10.2660 H   0  0  0  0  0  0  0  0  0  0  0  0
   -6.7330  -45.5540    9.2370 H   0  0  0  0  0  0  0  0  0  0  0  0
  1  2  2  0  0  0  0
  2  3  1  0  0  0  0
  2  4  1  0  0  0  0
  4  5  1  0  0  0  0
  4 12  2  0  0  0  0
  5  6  1  0  0  0  0
  6  7  2  0  0  0  0
  6 11  1  0  0  0  0
  7  8  1  0  0  0  0
  7 21  1  0  0  0  0
  8  9  2  0  0  0  0
  8 22  1  0  0  0  0
  9 10  1  0  0  0  0
  9 23  1  0  0  0  0
 10 11  2  0  0  0  0
 10 24  1  0  0  0  0
 11 12  1  0  0  0  0
 12 13  1  0  0  0  0
 13 25  1  0  0  0  0
 13 26  1  0  0  0  0
 13 14  1  0  0  0  0
 14 15  1  0  0  0  0
 14 27  1  0  0  0  0
 14 28  1  0  0  0  0
 15 16  1  0  0  0  0
 15 29  1  0  0  0  0
 15 30  1  0  0  0  0
 16 17  1  0  0  0  0
 17 20  2  0  0  0  0
 17 33  1  0  0  0  0
 18 19  2  0  0  0  0
 18 32  1  0  0  0  0
 18 43  1  0  0  0  0
 19 20  1  0  0  0  0
 19 42  1  0  0  0  0
 20 31  1  0  0  0  0
 32 33  2  0  0  0  0
 32 37  1  0  0  0  0
 33 34  1  0  0  0  0
 34 35  2  0  0  0  0
 34 38  1  0  0  0  0
 35 36  1  0  0  0  0
 35 39  1  0  0  0  0
 36 37  2  0  0  0  0
 36 40  1  0  0  0  0
 37 41  1  0  0  0  0
M  CHG  1   3  -1
M  END
$$$$
