28
 OpenBabel04222415263D
Structure written by MMmdl.
 53 56  0  0  0  0  0  0  0  0999 V2000
    1.7260   28.9320    6.7890 C   0  0  0  0  0  0  0  0  0  0  0  0
   -1.7000   31.5530    8.0380 C   0  0  0  0  0  0  0  0  0  0  0  0
   -0.2240   26.0540    8.8930 C   0  0  0  0  0  0  0  0  0  0  0  0
   -0.9540   25.3410   10.0380 C   0  0  0  0  0  0  0  0  0  0  0  0
   -0.7290   23.8230    9.8470 C   0  0  0  0  0  0  0  0  0  0  0  0
   -1.3230   23.0190   11.0120 C   0  0  0  0  0  0  0  0  0  0  0  0
   -0.7770   23.5040   12.3640 C   0  0  0  0  0  0  0  0  0  0  0  0
   -1.0330   25.0070   12.5580 C   0  0  0  0  0  0  0  0  0  0  0  0
   -0.4310   25.8240   11.4050 C   0  0  0  0  0  0  0  0  0  0  0  0
    5.3300   25.7340    5.7940 C   0  0  0  0  0  0  0  0  0  0  0  0
    5.1540   24.9960    6.9710 C   0  0  0  0  0  0  0  0  0  0  0  0
    4.2810   25.4840    7.9530 C   0  0  0  0  0  0  0  0  0  0  0  0
    3.5500   26.6500    7.7540 C   0  0  0  0  0  0  0  0  0  0  0  0
    1.0100   27.9760    7.4990 N   0  0  0  0  0  0  0  0  0  0  0  0
   -0.1670   28.3120    8.0870 C   0  0  0  0  0  0  0  0  0  0  0  0
   -0.8370   27.4070    8.8160 O   0  0  0  0  0  0  0  0  0  0  0  0
   -0.6770   29.6300    7.9440 C   0  0  0  0  0  0  0  0  0  0  0  0
   -1.8100   30.2840    8.4410 N   0  0  0  0  0  0  0  0  0  0  0  0
   -0.4990   31.7820    7.2780 N   0  0  0  0  0  0  0  0  0  0  0  0
    0.1530   30.5570    7.1920 C   0  0  0  0  0  0  0  0  0  0  0  0
    1.3420   30.2410    6.5770 N   0  0  0  0  0  0  0  0  0  0  0  0
    2.9350   28.5220    6.2180 N   0  0  0  0  0  0  0  0  0  0  0  0
    3.6720   27.3470    6.5370 C   0  0  0  0  0  0  0  0  0  0  0  0
    4.6000   26.8980    5.5710 C   0  0  0  0  0  0  0  0  0  0  0  0
   -2.3930   32.3610    8.2550 H   0  0  0  0  0  0  0  0  0  0  0  0
    0.8630   26.1560    9.1100 H   0  0  0  0  0  0  0  0  0  0  0  0
   -0.4100   25.5840    7.9070 H   0  0  0  0  0  0  0  0  0  0  0  0
   -2.0480   25.5550    9.9870 H   0  0  0  0  0  0  0  0  0  0  0  0
   -1.2060   23.4950    8.8980 H   0  0  0  0  0  0  0  0  0  0  0  0
    0.3680   23.6150    9.7890 H   0  0  0  0  0  0  0  0  0  0  0  0
   -2.4280   23.1330   11.0100 H   0  0  0  0  0  0  0  0  0  0  0  0
   -1.0700   21.9410   10.8820 H   0  0  0  0  0  0  0  0  0  0  0  0
   -1.2670   22.9350   13.1870 H   0  0  0  0  0  0  0  0  0  0  0  0
    0.3210   23.3150   12.3980 H   0  0  0  0  0  0  0  0  0  0  0  0
   -2.1300   25.1920   12.6240 H   0  0  0  0  0  0  0  0  0  0  0  0
   -0.5640   25.3360   13.5140 H   0  0  0  0  0  0  0  0  0  0  0  0
    0.6800   25.7180   11.4430 H   0  0  0  0  0  0  0  0  0  0  0  0
   -0.6880   26.8990   11.5410 H   0  0  0  0  0  0  0  0  0  0  0  0
    6.0370   25.4120    5.0190 H   0  0  0  0  0  0  0  0  0  0  0  0
    4.1450   24.9570    8.9020 H   0  0  0  0  0  0  0  0  0  0  0  0
    2.8800   26.9960    8.5410 H   0  0  0  0  0  0  0  0  0  0  0  0
   -0.2250   32.6610    6.8140 H   0  0  0  0  0  0  0  0  0  0  0  0
    3.4300   29.1810    5.5710 H   0  0  0  0  0  0  0  0  0  0  0  0
    4.7460   27.4570    4.6450 H   0  0  0  0  0  0  0  0  0  0  0  0
    6.0030   23.5120    7.1950 S   0  0  0  0  0  0  0  0  0  0  0  0
    6.1030   22.7920    5.9160 O   0  0  0  0  0  0  0  0  0  0  0  0
    7.2960   23.7940    7.8290 O   0  0  0  0  0  0  0  0  0  0  0  0
    5.0930   22.5380    8.2520 N   0  0  0  0  0  0  0  0  0  0  0  0
    5.1070   22.8260    9.2740 H   0  0  0  0  0  0  0  0  0  0  0  0
    3.7320   22.1090    7.8540 C   0  0  0  0  0  0  0  0  0  0  0  0
    3.4420   21.2350    8.4980 H   0  0  0  0  0  0  0  0  0  0  0  0
    3.7130   21.7680    6.7890 H   0  0  0  0  0  0  0  0  0  0  0  0
    2.9680   22.9170    8.0060 H   0  0  0  0  0  0  0  0  0  0  0  0
  1 14  2  0  0  0  0
  1 21  1  0  0  0  0
  1 22  1  0  0  0  0
  2 18  2  0  0  0  0
  2 19  1  0  0  0  0
  2 25  1  0  0  0  0
  3  4  1  0  0  0  0
  3 16  1  0  0  0  0
  3 26  1  0  0  0  0
  3 27  1  0  0  0  0
  4  5  1  0  0  0  0
  4  9  1  0  0  0  0
  4 28  1  0  0  0  0
  5  6  1  0  0  0  0
  5 29  1  0  0  0  0
  5 30  1  0  0  0  0
  6  7  1  0  0  0  0
  6 31  1  0  0  0  0
  6 32  1  0  0  0  0
  7  8  1  0  0  0  0
  7 33  1  0  0  0  0
  7 34  1  0  0  0  0
  8  9  1  0  0  0  0
  8 35  1  0  0  0  0
  8 36  1  0  0  0  0
  9 37  1  0  0  0  0
  9 38  1  0  0  0  0
 10 11  2  0  0  0  0
 10 24  1  0  0  0  0
 10 39  1  0  0  0  0
 11 12  1  0  0  0  0
 11 45  1  0  0  0  0
 12 13  2  0  0  0  0
 12 40  1  0  0  0  0
 13 23  1  0  0  0  0
 13 41  1  0  0  0  0
 14 15  1  0  0  0  0
 15 16  1  0  0  0  0
 15 17  2  0  0  0  0
 17 18  1  0  0  0  0
 17 20  1  0  0  0  0
 19 20  1  0  0  0  0
 19 42  1  0  0  0  0
 20 21  2  0  0  0  0
 22 23  1  0  0  0  0
 22 43  1  0  0  0  0
 23 24  2  0  0  0  0
 24 44  1  0  0  0  0
 45 46  2  0  0  0  0
 45 47  2  0  0  0  0
 45 48  1  0  0  0  0
 48 49  1  0  0  0  0
 48 50  1  0  0  0  0
 50 51  1  0  0  0  0
 50 52  1  0  0  0  0
 50 53  1  0  0  0  0
M  END
$$$$
