p38a_2n
 OpenBabel02232411163D
Structure written by MMmdl.
 53 56  0  0  0  0  0  0  0  0999 V2000
   38.2770   36.4960   17.2480 C   0  0  0  0  0  0  0  0  0  0  0  0
   34.3820   35.1320   21.3180 C   0  0  0  0  0  0  0  0  0  0  0  0
   37.5180   36.0590   18.3310 C   0  0  0  0  0  0  0  0  0  0  0  0
   33.6300   39.2870   23.6850 C   0  0  0  0  0  0  0  0  0  0  0  0
   34.5500   38.0010   21.4220 C   0  0  0  0  0  0  0  0  0  0  0  0
   35.0670   37.3070   20.2740 C   0  0  0  0  0  0  0  0  0  0  0  0
   37.6040   36.6150   16.0240 C   0  0  0  0  0  0  0  0  0  0  0  0
   36.2560   36.2930   15.8520 C   0  0  0  0  0  0  0  0  0  0  0  0
   35.5190   35.8440   16.9540 C   0  0  0  0  0  0  0  0  0  0  0  0
   33.9590   37.2790   22.5000 C   0  0  0  0  0  0  0  0  0  0  0  0
   34.6090   39.4140   21.5510 C   0  0  0  0  0  0  0  0  0  0  0  0
   35.0050   35.9570   20.2490 C   0  0  0  0  0  0  0  0  0  0  0  0
   36.1570   35.7160   18.1910 C   0  0  0  0  0  0  0  0  0  0  0  0
   38.0760   35.9580   19.5300 F   0  0  0  0  0  0  0  0  0  0  0  0
   35.4760   35.1030   19.2520 O   0  0  0  0  0  0  0  0  0  0  0  0
   34.1840   40.0640   22.6410 N   0  0  0  0  0  0  0  0  0  0  0  0
   34.3020   33.9220   21.3160 O   0  0  0  0  0  0  0  0  0  0  0  0
   33.8330   35.8800   22.4210 N   0  0  0  0  0  0  0  0  0  0  0  0
   33.5070   37.9160   23.6320 N   0  0  0  0  0  0  0  0  0  0  0  0
   33.1540   40.0110   24.7570 N   0  0  0  0  0  0  0  0  0  0  0  0
   39.3300   36.7710   17.3540 H   0  0  0  0  0  0  0  0  0  0  0  0
   35.4980   37.9010   19.4640 H   0  0  0  0  0  0  0  0  0  0  0  0
   35.7670   36.4020   14.8800 H   0  0  0  0  0  0  0  0  0  0  0  0
   34.4550   35.6150   16.8400 H   0  0  0  0  0  0  0  0  0  0  0  0
   35.0170   40.0210   20.7270 H   0  0  0  0  0  0  0  0  0  0  0  0
   33.4290   41.0160   24.8110 H   0  0  0  0  0  0  0  0  0  0  0  0
   38.2780   37.0980   14.9830 F   0  0  0  0  0  0  0  0  0  0  0  0
   33.3060   38.3570   28.2330 C   0  0  0  0  0  0  0  0  0  0  0  0
   33.8360   38.8060   26.8650 C   0  0  0  0  0  0  0  0  0  0  0  0
   32.6970   39.4870   26.0780 C   0  0  0  0  0  0  0  0  0  0  0  0
   31.4840   38.5470   25.9670 C   0  0  0  0  0  0  0  0  0  0  0  0
   31.0610   38.0930   27.3710 C   0  0  0  0  0  0  0  0  0  0  0  0
   32.1550   37.4950   28.1040 O   0  0  0  0  0  0  0  0  0  0  0  0
   33.0330   39.2360   28.8610 H   0  0  0  0  0  0  0  0  0  0  0  0
   34.0400   37.6980   28.7530 H   0  0  0  0  0  0  0  0  0  0  0  0
   34.2160   37.9220   26.3000 H   0  0  0  0  0  0  0  0  0  0  0  0
   34.6810   39.5220   27.0120 H   0  0  0  0  0  0  0  0  0  0  0  0
   32.3800   40.4190   26.6380 H   0  0  0  0  0  0  0  0  0  0  0  0
   30.6370   39.0770   25.4730 H   0  0  0  0  0  0  0  0  0  0  0  0
   31.7480   37.6510   25.3520 H   0  0  0  0  0  0  0  0  0  0  0  0
   30.6570   38.9410   27.9660 H   0  0  0  0  0  0  0  0  0  0  0  0
   30.3320   37.2510   27.3160 H   0  0  0  0  0  0  0  0  0  0  0  0
   33.0850   35.1350   23.4900 C   0  0  0  0  0  0  0  0  0  0  0  0
   32.1730   35.7400   23.7620 H   0  0  0  0  0  0  0  0  0  0  0  0
   32.7440   34.1550   23.0540 H   0  0  0  0  0  0  0  0  0  0  0  0
   33.9130   34.8930   24.7560 C   0  0  0  0  0  0  0  0  0  0  0  0
   34.2190   35.8700   25.2030 H   0  0  0  0  0  0  0  0  0  0  0  0
   33.2360   34.3930   25.5010 H   0  0  0  0  0  0  0  0  0  0  0  0
   35.1470   34.0080   24.5430 C   0  0  0  0  0  0  0  0  0  0  0  0
   34.9940   33.2660   23.7270 H   0  0  0  0  0  0  0  0  0  0  0  0
   36.0570   34.6250   24.3880 H   0  0  0  0  0  0  0  0  0  0  0  0
   35.3490   33.1620   25.6860 O   0  0  0  0  0  0  0  0  0  0  0  0
   35.7000   33.7070   26.4500 H   0  0  0  0  0  0  0  0  0  0  0  0
  1  3  2  0  0  0  0
  1  7  1  0  0  0  0
  1 21  1  0  0  0  0
  2 12  1  0  0  0  0
  2 17  2  0  0  0  0
  2 18  1  0  0  0  0
  3 13  1  0  0  0  0
  3 14  1  0  0  0  0
  4 16  2  0  0  0  0
  4 19  1  0  0  0  0
  4 20  1  0  0  0  0
  5  6  1  0  0  0  0
  5 10  1  0  0  0  0
  5 11  2  0  0  0  0
  6 12  2  0  0  0  0
  6 22  1  0  0  0  0
  7  8  2  0  0  0  0
  7 27  1  0  0  0  0
  8  9  1  0  0  0  0
  8 23  1  0  0  0  0
  9 13  2  0  0  0  0
  9 24  1  0  0  0  0
 10 18  1  0  0  0  0
 10 19  2  0  0  0  0
 11 16  1  0  0  0  0
 11 25  1  0  0  0  0
 12 15  1  0  0  0  0
 13 15  1  0  0  0  0
 18 43  1  0  0  0  0
 20 26  1  0  0  0  0
 20 30  1  0  0  0  0
 28 29  1  0  0  0  0
 28 33  1  0  0  0  0
 28 34  1  0  0  0  0
 28 35  1  0  0  0  0
 29 30  1  0  0  0  0
 29 36  1  0  0  0  0
 29 37  1  0  0  0  0
 30 31  1  0  0  0  0
 30 38  1  0  0  0  0
 31 32  1  0  0  0  0
 31 39  1  0  0  0  0
 31 40  1  0  0  0  0
 32 33  1  0  0  0  0
 32 41  1  0  0  0  0
 32 42  1  0  0  0  0
 43 44  1  0  0  0  0
 43 45  1  0  0  0  0
 43 46  1  0  0  0  0
 46 47  1  0  0  0  0
 46 48  1  0  0  0  0
 46 49  1  0  0  0  0
 49 50  1  0  0  0  0
 49 51  1  0  0  0  0
 49 52  1  0  0  0  0
 52 53  1  0  0  0  0
M  END
$$$$
