p38a_2t
 OpenBabel02232411163D
Structure written by MMmdl.
 47 50  0  0  0  0  0  0  0  0999 V2000
   36.3660   36.0860   15.7600 C   0  0  0  0  0  0  0  0  0  0  0  0
   34.5620   34.9640   21.2400 C   0  0  0  0  0  0  0  0  0  0  0  0
   35.7370   35.5970   16.9000 C   0  0  0  0  0  0  0  0  0  0  0  0
   33.9970   38.9930   23.8840 C   0  0  0  0  0  0  0  0  0  0  0  0
   34.7810   37.8280   21.5020 C   0  0  0  0  0  0  0  0  0  0  0  0
   35.2710   37.1870   20.3100 C   0  0  0  0  0  0  0  0  0  0  0  0
   37.6580   36.5990   15.9310 C   0  0  0  0  0  0  0  0  0  0  0  0
   38.3260   36.6110   17.1590 C   0  0  0  0  0  0  0  0  0  0  0  0
   37.6570   36.1500   18.2980 C   0  0  0  0  0  0  0  0  0  0  0  0
   34.2790   37.0470   22.5830 C   0  0  0  0  0  0  0  0  0  0  0  0
   34.7910   39.2380   21.6890 C   0  0  0  0  0  0  0  0  0  0  0  0
   35.1980   35.8400   20.2200 C   0  0  0  0  0  0  0  0  0  0  0  0
   36.3620   35.6420   18.1630 C   0  0  0  0  0  0  0  0  0  0  0  0
   34.5270   35.0580   16.8240 F   0  0  0  0  0  0  0  0  0  0  0  0
   35.6710   35.0110   19.2050 O   0  0  0  0  0  0  0  0  0  0  0  0
   34.4190   39.8330   22.8330 N   0  0  0  0  0  0  0  0  0  0  0  0
   34.3920   33.7710   21.1420 O   0  0  0  0  0  0  0  0  0  0  0  0
   34.1510   35.6490   22.4450 N   0  0  0  0  0  0  0  0  0  0  0  0
   33.9090   37.6140   23.7710 N   0  0  0  0  0  0  0  0  0  0  0  0
   33.6370   39.5700   25.0740 N   0  0  0  0  0  0  0  0  0  0  0  0
   35.8710   36.0910   14.7860 H   0  0  0  0  0  0  0  0  0  0  0  0
   35.7010   37.8170   19.5290 H   0  0  0  0  0  0  0  0  0  0  0  0
   39.3430   37.0020   17.2410 H   0  0  0  0  0  0  0  0  0  0  0  0
   38.1420   36.2150   19.2750 H   0  0  0  0  0  0  0  0  0  0  0  0
   35.1140   39.8950   20.8650 H   0  0  0  0  0  0  0  0  0  0  0  0
   33.7100   40.5970   25.1980 H   0  0  0  0  0  0  0  0  0  0  0  0
   38.2620   37.1330   14.8720 F   0  0  0  0  0  0  0  0  0  0  0  0
   33.2080   40.4800   28.1530 C   0  0  0  0  0  0  0  0  0  0  0  0
   32.3560   39.6330   27.2000 C   0  0  0  0  0  0  0  0  0  0  0  0
   33.1840   38.7500   26.2460 C   0  0  0  0  0  0  0  0  0  0  0  0
   34.3770   38.0920   26.9710 C   0  0  0  0  0  0  0  0  0  0  0  0
   35.1380   39.0820   27.8540 C   0  0  0  0  0  0  0  0  0  0  0  0
   34.2460   39.7160   28.8010 O   0  0  0  0  0  0  0  0  0  0  0  0
   32.6010   40.8410   29.0150 H   0  0  0  0  0  0  0  0  0  0  0  0
   33.6830   41.3280   27.6100 H   0  0  0  0  0  0  0  0  0  0  0  0
   31.6990   40.3140   26.6040 H   0  0  0  0  0  0  0  0  0  0  0  0
   31.6930   38.9530   27.7930 H   0  0  0  0  0  0  0  0  0  0  0  0
   32.5110   37.9340   25.8470 H   0  0  0  0  0  0  0  0  0  0  0  0
   33.9680   37.2590   27.5990 H   0  0  0  0  0  0  0  0  0  0  0  0
   35.0760   37.6390   26.2270 H   0  0  0  0  0  0  0  0  0  0  0  0
   35.8600   38.5650   28.5250 H   0  0  0  0  0  0  0  0  0  0  0  0
   35.6310   39.8710   27.2400 H   0  0  0  0  0  0  0  0  0  0  0  0
   33.5920   34.8360   23.5710 C   0  0  0  0  0  0  0  0  0  0  0  0
   33.2330   35.5070   24.4180 H   0  0  0  0  0  0  0  0  0  0  0  0
   32.6880   34.2570   23.2080 H   0  0  0  0  0  0  0  0  0  0  0  0
   34.6110   33.9210   24.0830 C   0  0  0  0  0  0  0  0  0  0  0  0
   35.4230   33.1950   24.4680 N   0  0  0  0  0  0  0  0  0  0  0  0
  1  3  2  0  0  0  0
  1  7  1  0  0  0  0
  1 21  1  0  0  0  0
  2 12  1  0  0  0  0
  2 17  2  0  0  0  0
  2 18  1  0  0  0  0
  3 13  1  0  0  0  0
  3 14  1  0  0  0  0
  4 16  2  0  0  0  0
  4 19  1  0  0  0  0
  4 20  1  0  0  0  0
  5  6  1  0  0  0  0
  5 10  1  0  0  0  0
  5 11  2  0  0  0  0
  6 12  2  0  0  0  0
  6 22  1  0  0  0  0
  7  8  2  0  0  0  0
  7 27  1  0  0  0  0
  8  9  1  0  0  0  0
  8 23  1  0  0  0  0
  9 13  2  0  0  0  0
  9 24  1  0  0  0  0
 10 18  1  0  0  0  0
 10 19  2  0  0  0  0
 11 16  1  0  0  0  0
 11 25  1  0  0  0  0
 12 15  1  0  0  0  0
 13 15  1  0  0  0  0
 18 43  1  0  0  0  0
 20 26  1  0  0  0  0
 20 30  1  0  0  0  0
 28 29  1  0  0  0  0
 28 33  1  0  0  0  0
 28 34  1  0  0  0  0
 28 35  1  0  0  0  0
 29 30  1  0  0  0  0
 29 36  1  0  0  0  0
 29 37  1  0  0  0  0
 30 31  1  0  0  0  0
 30 38  1  0  0  0  0
 31 32  1  0  0  0  0
 31 39  1  0  0  0  0
 31 40  1  0  0  0  0
 32 33  1  0  0  0  0
 32 41  1  0  0  0  0
 32 42  1  0  0  0  0
 43 44  1  0  0  0  0
 43 45  1  0  0  0  0
 43 46  1  0  0  0  0
 46 47  3  0  0  0  0
M  END
$$$$
