p38a_3flq
 OpenBabel02232411163D
Structure written by MMmdl.
 47 49  0  0  1  0  0  0  0  0999 V2000
   33.3980   39.0500   23.7890 C   0  0  0  0  0  0  0  0  0  0  0  0
   34.4850   37.9280   21.5010 C   0  0  0  0  0  0  0  0  0  0  0  0
   35.0400   37.3140   20.3240 C   0  0  0  0  0  0  0  0  0  0  0  0
   33.8130   37.1380   22.4790 C   0  0  0  0  0  0  0  0  0  0  0  0
   34.9570   35.9700   20.1970 C   0  0  0  0  0  0  0  0  0  0  0  0
   31.8880   39.2000   25.9020 C   0  0  1  0  0  0  0  0  0  0  0  0
   31.6080   37.7020   25.8940 C   0  0  0  0  0  0  0  0  0  0  0  0
   34.7780   40.7240   27.9300 C   0  0  0  0  0  0  0  0  0  0  0  0
   33.7090   35.7470   22.3110 N   0  0  0  0  0  0  0  0  0  0  0  0
   32.2830   39.7110   27.3090 C   0  0  0  0  0  0  0  0  0  0  0  0
   38.3060   37.1790   14.9570 F   0  0  0  0  0  0  0  0  0  0  0  0
   37.6100   36.7070   15.9890 C   0  0  0  0  0  0  0  0  0  0  0  0
   36.2520   36.4360   15.8040 C   0  0  0  0  0  0  0  0  0  0  0  0
   35.4960   35.9880   16.8930 C   0  0  0  0  0  0  0  0  0  0  0  0
   38.2720   36.5430   17.2130 C   0  0  0  0  0  0  0  0  0  0  0  0
   37.4960   36.1060   18.2830 C   0  0  0  0  0  0  0  0  0  0  0  0
   38.0420   35.9570   19.4820 F   0  0  0  0  0  0  0  0  0  0  0  0
   36.1250   35.8100   18.1290 C   0  0  0  0  0  0  0  0  0  0  0  0
   35.4300   35.1690   19.1610 O   0  0  0  0  0  0  0  0  0  0  0  0
   34.2980   35.0730   21.1860 C   0  0  0  0  0  0  0  0  0  0  0  0
   34.2380   33.8650   21.1040 O   0  0  0  0  0  0  0  0  0  0  0  0
   34.5630   39.3230   21.7570 C   0  0  0  0  0  0  0  0  0  0  0  0
   34.0590   39.8890   22.8630 N   0  0  0  0  0  0  0  0  0  0  0  0
   33.2640   37.6930   23.6100 N   0  0  0  0  0  0  0  0  0  0  0  0
   32.9350   34.9480   23.3020 C   0  0  0  0  0  0  0  0  0  0  0  0
   32.9190   39.6830   24.9210 N   0  0  0  0  0  0  0  0  0  0  0  0
   33.8610   39.2490   27.9520 S   0  0  0  0  0  0  0  0  0  0  0  0
   33.7110   38.7740   29.3520 O   0  0  0  0  0  0  0  0  0  0  0  0
   34.5270   38.2180   27.1370 O   0  0  0  0  0  0  0  0  0  0  0  0
   35.5060   37.9590   19.5750 H   0  0  0  0  0  0  0  0  0  0  0  0
   30.9280   39.7380   25.6200 H   0  0  0  0  0  0  0  0  0  0  0  0
   31.1420   37.3960   24.9280 H   0  0  0  0  0  0  0  0  0  0  0  0
   32.5370   37.1030   26.0430 H   0  0  0  0  0  0  0  0  0  0  0  0
   30.8820   37.4580   26.7070 H   0  0  0  0  0  0  0  0  0  0  0  0
   35.8180   40.6000   28.3250 H   0  0  0  0  0  0  0  0  0  0  0  0
   34.8660   41.1710   26.9050 H   0  0  0  0  0  0  0  0  0  0  0  0
   34.3030   41.5240   28.5650 H   0  0  0  0  0  0  0  0  0  0  0  0
   32.2050   40.8360   27.3050 H   0  0  0  0  0  0  0  0  0  0  0  0
   31.4790   39.3600   28.0170 H   0  0  0  0  0  0  0  0  0  0  0  0
   35.7710   36.5820   14.8340 H   0  0  0  0  0  0  0  0  0  0  0  0
   34.4260   35.7930   16.7690 H   0  0  0  0  0  0  0  0  0  0  0  0
   39.3330   36.7830   17.3290 H   0  0  0  0  0  0  0  0  0  0  0  0
   35.0460   39.9930   21.0270 H   0  0  0  0  0  0  0  0  0  0  0  0
   32.9950   33.8570   23.0520 H   0  0  0  0  0  0  0  0  0  0  0  0
   33.3410   35.1090   24.3370 H   0  0  0  0  0  0  0  0  0  0  0  0
   31.8590   35.2720   23.2890 H   0  0  0  0  0  0  0  0  0  0  0  0
   33.0670   40.7170   24.9780 H   0  0  0  0  0  0  0  0  0  0  0  0
  1 23  2  0  0  0  0
  1 24  1  0  0  0  0
  1 26  1  0  0  0  0
  2  3  1  0  0  0  0
  2  4  1  0  0  0  0
  2 22  2  0  0  0  0
  3  5  2  0  0  0  0
  3 30  1  0  0  0  0
  4  9  1  0  0  0  0
  4 24  2  0  0  0  0
  5 19  1  0  0  0  0
  5 20  1  0  0  0  0
  6  7  1  0  0  0  0
  6 10  1  0  0  0  0
  6 26  1  0  0  0  0
  6 31  1  6  0  0  0
  7 32  1  0  0  0  0
  7 33  1  0  0  0  0
  7 34  1  0  0  0  0
  8 27  1  0  0  0  0
  8 35  1  0  0  0  0
  8 36  1  0  0  0  0
  8 37  1  0  0  0  0
  9 20  1  0  0  0  0
  9 25  1  0  0  0  0
 10 27  1  0  0  0  0
 10 38  1  0  0  0  0
 10 39  1  0  0  0  0
 11 12  1  0  0  0  0
 12 13  2  0  0  0  0
 12 15  1  0  0  0  0
 13 14  1  0  0  0  0
 13 40  1  0  0  0  0
 14 18  2  0  0  0  0
 14 41  1  0  0  0  0
 15 16  2  0  0  0  0
 15 42  1  0  0  0  0
 16 17  1  0  0  0  0
 16 18  1  0  0  0  0
 18 19  1  0  0  0  0
 20 21  2  0  0  0  0
 22 23  1  0  0  0  0
 22 43  1  0  0  0  0
 25 44  1  0  0  0  0
 25 45  1  0  0  0  0
 25 46  1  0  0  0  0
 26 47  1  0  0  0  0
 27 28  2  0  0  0  0
 27 29  2  0  0  0  0
M  END
$$$$
