26
                    3D
 Schrodinger Suite 2022-3.
 49 52  0  0  1  0  0  0  0  0999 V2000
    1.8210   28.9350    6.8540 C   0  0  0  0  0  0  0  0  0  0  0  0
   -1.7100   31.5090    7.9260 C   0  0  0  0  0  0  0  0  0  0  0  0
   -0.3250   26.0040    8.7840 C   0  0  0  0  0  0  0  0  0  0  0  0
   -1.0820   25.3540    9.9510 C   0  0  0  0  0  0  0  0  0  0  0  0
   -0.9090   23.8240    9.8170 C   0  0  0  0  0  0  0  0  0  0  0  0
   -1.5390   23.0860   11.0060 C   0  0  0  0  0  0  0  0  0  0  0  0
   -0.9900   23.5950   12.3480 C   0  0  0  0  0  0  0  0  0  0  0  0
   -1.1860   25.1130   12.4870 C   0  0  0  0  0  0  0  0  0  0  0  0
   -0.5570   25.8690   11.3060 C   0  0  0  0  0  0  0  0  0  0  0  0
    4.4540   25.3370    7.7070 C   0  0  0  0  0  0  0  0  0  0  0  0
    5.2210   24.9680    6.5820 C   0  0  0  0  0  0  0  0  0  0  0  0
    5.2400   25.7550    5.4260 C   0  0  0  0  0  0  0  0  0  0  0  0
    4.4910   26.9310    5.3960 C   0  0  0  0  0  0  0  0  0  0  0  0
    1.0810   27.9620    7.5250 N   0  0  0  0  0  0  0  0  0  0  0  0
   -0.1290   28.2900    8.0450 C   0  0  0  0  0  0  0  0  0  0  0  0
   -0.8630   27.3840    8.7070 O   0  0  0  0  0  0  0  0  0  0  0  0
   -0.6400   29.6080    7.9010 C   0  0  0  0  0  0  0  0  0  0  0  0
   -1.8060   30.2450    8.3420 N   0  0  0  0  0  0  0  0  0  0  0  0
   -0.4750   31.7600    7.2260 N   0  0  0  0  0  0  0  0  0  0  0  0
    0.2010   30.5440    7.1750 C   0  0  0  0  0  0  0  0  0  0  0  0
    1.4080   30.2380    6.6030 N   0  0  0  0  0  0  0  0  0  0  0  0
    3.1090   28.6160    6.4500 N   0  0  0  0  0  0  0  0  0  0  0  0
    3.7300   27.3190    6.5130 C   0  0  0  0  0  0  0  0  0  0  0  0
    3.7090   26.5120    7.6700 C   0  0  0  0  0  0  0  0  0  0  0  0
   -2.4320   32.3050    8.0830 H   0  0  0  0  0  0  0  0  0  0  0  0
   -0.5760   25.5430    7.8070 H   0  0  0  0  0  0  0  0  0  0  0  0
    0.7710   26.0360    8.9690 H   0  0  0  0  0  0  0  0  0  0  0  0
   -2.1690   25.6040    9.8730 H   0  0  0  0  0  0  0  0  0  0  0  0
    0.1780   23.5730    9.7700 H   0  0  0  0  0  0  0  0  0  0  0  0
   -1.3970   23.4800    8.8780 H   0  0  0  0  0  0  0  0  0  0  0  0
   -1.3340   21.9940   10.9170 H   0  0  0  0  0  0  0  0  0  0  0  0
   -2.6390   23.2450   10.9880 H   0  0  0  0  0  0  0  0  0  0  0  0
    0.0970   23.3570   12.4200 H   0  0  0  0  0  0  0  0  0  0  0  0
   -1.5200   23.0770   13.1810 H   0  0  0  0  0  0  0  0  0  0  0  0
   -0.7030   25.4540   13.4330 H   0  0  0  0  0  0  0  0  0  0  0  0
   -2.2750   25.3410   12.5490 H   0  0  0  0  0  0  0  0  0  0  0  0
   -0.7880   26.9540   11.4020 H   0  0  0  0  0  0  0  0  0  0  0  0
    0.5510   25.7370   11.3560 H   0  0  0  0  0  0  0  0  0  0  0  0
    4.4490   24.7140    8.6040 H   0  0  0  0  0  0  0  0  0  0  0  0
    5.9220   23.7860    6.7440 O   0  0  0  0  0  0  0  0  0  0  0  0
    5.8250   25.4860    4.5450 H   0  0  0  0  0  0  0  0  0  0  0  0
    4.5220   27.5510    4.4980 H   0  0  0  0  0  0  0  0  0  0  0  0
   -0.2370   32.6270    6.7230 H   0  0  0  0  0  0  0  0  0  0  0  0
    3.5660   29.2510    5.7520 H   0  0  0  0  0  0  0  0  0  0  0  0
    3.1180   26.8010    8.5430 H   0  0  0  0  0  0  0  0  0  0  0  0
    6.9080   23.4780    5.7220 C   0  0  0  0  0  0  0  0  0  0  0  0
    7.4430   22.5990    6.1410 H   0  0  0  0  0  0  0  0  0  0  0  0
    6.3920   23.2190    4.7690 H   0  0  0  0  0  0  0  0  0  0  0  0
    7.6030   24.3380    5.5830 H   0  0  0  0  0  0  0  0  0  0  0  0
  1 14  1  0  0  0  0
  1 21  2  0  0  0  0
  1 22  1  0  0  0  0
  2 18  2  0  0  0  0
  2 19  1  0  0  0  0
  2 25  1  0  0  0  0
  3  4  1  0  0  0  0
  3 16  1  0  0  0  0
  3 26  1  0  0  0  0
  3 27  1  0  0  0  0
  4  5  1  0  0  0  0
  4  9  1  0  0  0  0
  4 28  1  0  0  0  0
  5  6  1  0  0  0  0
  5 29  1  0  0  0  0
  5 30  1  0  0  0  0
  6  7  1  0  0  0  0
  6 31  1  0  0  0  0
  6 32  1  0  0  0  0
  7  8  1  0  0  0  0
  7 33  1  0  0  0  0
  7 34  1  0  0  0  0
  8  9  1  0  0  0  0
  8 35  1  0  0  0  0
  8 36  1  0  0  0  0
  9 37  1  0  0  0  0
  9 38  1  0  0  0  0
 10 11  1  0  0  0  0
 10 24  2  0  0  0  0
 10 39  1  0  0  0  0
 11 12  2  0  0  0  0
 11 40  1  0  0  0  0
 12 13  1  0  0  0  0
 12 41  1  0  0  0  0
 13 23  2  0  0  0  0
 13 42  1  0  0  0  0
 14 15  2  0  0  0  0
 15 16  1  0  0  0  0
 15 17  1  0  0  0  0
 17 18  1  0  0  0  0
 17 20  2  0  0  0  0
 19 20  1  0  0  0  0
 19 43  1  0  0  0  0
 20 21  1  0  0  0  0
 22 23  1  0  0  0  0
 22 44  1  0  0  0  0
 23 24  1  0  0  0  0
 24 45  1  0  0  0  0
 40 46  1  0  0  0  0
 46 47  1  0  0  0  0
 46 48  1  0  0  0  0
 46 49  1  0  0  0  0
M  END
$$$$
