p38a_2n
 OpenBabel02232411163D
Structure written by MMmdl.
 53 56  0  0  0  0  0  0  0  0999 V2000
   38.3180   36.5670   17.1320 C   0  0  0  0  0  0  0  0  0  0  0  0
   34.4750   35.0640   21.1240 C   0  0  0  0  0  0  0  0  0  0  0  0
   37.5320   36.0930   18.1790 C   0  0  0  0  0  0  0  0  0  0  0  0
   33.8170   39.1360   23.6540 C   0  0  0  0  0  0  0  0  0  0  0  0
   34.6090   37.9360   21.3000 C   0  0  0  0  0  0  0  0  0  0  0  0
   35.0710   37.2810   20.1070 C   0  0  0  0  0  0  0  0  0  0  0  0
   37.6790   36.7240   15.8950 C   0  0  0  0  0  0  0  0  0  0  0  0
   36.3370   36.4050   15.6750 C   0  0  0  0  0  0  0  0  0  0  0  0
   35.5730   35.9150   16.7390 C   0  0  0  0  0  0  0  0  0  0  0  0
   34.1320   37.1670   22.4020 C   0  0  0  0  0  0  0  0  0  0  0  0
   34.6240   39.3480   21.4590 C   0  0  0  0  0  0  0  0  0  0  0  0
   35.0280   35.9310   20.0490 C   0  0  0  0  0  0  0  0  0  0  0  0
   36.1770   35.7510   17.9880 C   0  0  0  0  0  0  0  0  0  0  0  0
   38.0540   35.9630   19.3920 F   0  0  0  0  0  0  0  0  0  0  0  0
   35.4570   35.1110   19.0060 O   0  0  0  0  0  0  0  0  0  0  0  0
   34.2550   39.9590   22.5930 N   0  0  0  0  0  0  0  0  0  0  0  0
   34.3460   33.8610   21.0580 O   0  0  0  0  0  0  0  0  0  0  0  0
   34.0500   35.7670   22.3070 N   0  0  0  0  0  0  0  0  0  0  0  0
   33.7350   37.7620   23.5760 N   0  0  0  0  0  0  0  0  0  0  0  0
   33.4320   39.7880   24.8020 N   0  0  0  0  0  0  0  0  0  0  0  0
   39.3670   36.8400   17.2780 H   0  0  0  0  0  0  0  0  0  0  0  0
   35.4500   37.9010   19.2930 H   0  0  0  0  0  0  0  0  0  0  0  0
   35.8740   36.5500   14.6970 H   0  0  0  0  0  0  0  0  0  0  0  0
   34.5140   35.6820   16.5870 H   0  0  0  0  0  0  0  0  0  0  0  0
   34.9470   39.9900   20.6240 H   0  0  0  0  0  0  0  0  0  0  0  0
   33.6070   40.8100   24.8780 H   0  0  0  0  0  0  0  0  0  0  0  0
   38.3760   37.2420   14.8880 F   0  0  0  0  0  0  0  0  0  0  0  0
   33.5360   37.6070   27.9800 C   0  0  0  0  0  0  0  0  0  0  0  0
   34.0610   38.2370   26.6850 C   0  0  0  0  0  0  0  0  0  0  0  0
   32.9830   39.1580   26.0780 C   0  0  0  0  0  0  0  0  0  0  0  0
   31.6520   38.3990   25.9010 C   0  0  0  0  0  0  0  0  0  0  0  0
   31.2450   37.7530   27.2290 C   0  0  0  0  0  0  0  0  0  0  0  0
   32.2960   36.9000   27.7480 O   0  0  0  0  0  0  0  0  0  0  0  0
   33.3740   38.3780   28.7680 H   0  0  0  0  0  0  0  0  0  0  0  0
   34.2110   36.7950   28.3360 H   0  0  0  0  0  0  0  0  0  0  0  0
   34.3160   37.4250   25.9630 H   0  0  0  0  0  0  0  0  0  0  0  0
   34.9850   38.8250   26.9030 H   0  0  0  0  0  0  0  0  0  0  0  0
   32.8160   40.0310   26.7790 H   0  0  0  0  0  0  0  0  0  0  0  0
   30.8560   39.1060   25.5680 H   0  0  0  0  0  0  0  0  0  0  0  0
   31.7700   37.6060   25.1240 H   0  0  0  0  0  0  0  0  0  0  0  0
   30.9990   38.5220   27.9960 H   0  0  0  0  0  0  0  0  0  0  0  0
   30.4080   37.0310   27.0910 H   0  0  0  0  0  0  0  0  0  0  0  0
   33.5740   34.9660   23.4830 C   0  0  0  0  0  0  0  0  0  0  0  0
   32.7150   35.5150   23.9620 H   0  0  0  0  0  0  0  0  0  0  0  0
   33.2160   33.9700   23.1090 H   0  0  0  0  0  0  0  0  0  0  0  0
   34.6850   34.7700   24.5240 C   0  0  0  0  0  0  0  0  0  0  0  0
   35.5100   34.1420   24.1140 H   0  0  0  0  0  0  0  0  0  0  0  0
   35.1150   35.7590   24.8150 H   0  0  0  0  0  0  0  0  0  0  0  0
   34.1240   34.0800   25.7820 C   0  0  0  0  0  0  0  0  0  0  0  0
   33.9750   32.9880   25.6120 H   0  0  0  0  0  0  0  0  0  0  0  0
   34.7950   34.2730   26.6500 H   0  0  0  0  0  0  0  0  0  0  0  0
   32.8050   34.5360   26.1100 O   0  0  0  0  0  0  0  0  0  0  0  0
   32.8400   35.5020   26.3630 H   0  0  0  0  0  0  0  0  0  0  0  0
  1  3  2  0  0  0  0
  1  7  1  0  0  0  0
  1 21  1  0  0  0  0
  2 12  1  0  0  0  0
  2 17  2  0  0  0  0
  2 18  1  0  0  0  0
  3 13  1  0  0  0  0
  3 14  1  0  0  0  0
  4 16  2  0  0  0  0
  4 19  1  0  0  0  0
  4 20  1  0  0  0  0
  5  6  1  0  0  0  0
  5 10  1  0  0  0  0
  5 11  2  0  0  0  0
  6 12  2  0  0  0  0
  6 22  1  0  0  0  0
  7  8  2  0  0  0  0
  7 27  1  0  0  0  0
  8  9  1  0  0  0  0
  8 23  1  0  0  0  0
  9 13  2  0  0  0  0
  9 24  1  0  0  0  0
 10 18  1  0  0  0  0
 10 19  2  0  0  0  0
 11 16  1  0  0  0  0
 11 25  1  0  0  0  0
 12 15  1  0  0  0  0
 13 15  1  0  0  0  0
 18 43  1  0  0  0  0
 20 26  1  0  0  0  0
 20 30  1  0  0  0  0
 28 29  1  0  0  0  0
 28 33  1  0  0  0  0
 28 34  1  0  0  0  0
 28 35  1  0  0  0  0
 29 30  1  0  0  0  0
 29 36  1  0  0  0  0
 29 37  1  0  0  0  0
 30 31  1  0  0  0  0
 30 38  1  0  0  0  0
 31 32  1  0  0  0  0
 31 39  1  0  0  0  0
 31 40  1  0  0  0  0
 32 33  1  0  0  0  0
 32 41  1  0  0  0  0
 32 42  1  0  0  0  0
 43 44  1  0  0  0  0
 43 45  1  0  0  0  0
 43 46  1  0  0  0  0
 46 47  1  0  0  0  0
 46 48  1  0  0  0  0
 46 49  1  0  0  0  0
 49 50  1  0  0  0  0
 49 51  1  0  0  0  0
 49 52  1  0  0  0  0
 52 53  1  0  0  0  0
M  END
$$$$
