17124-1
 OpenBabel02232411163D
Structure written by MMmdl.
 46 47  0  0  0  0  0  0  0  0999 V2000
   23.8290   12.6740   30.3500 C   0  0  0  0  0  0  0  0  0  0  0  0
   23.3850   11.2270   30.4550 C   0  0  0  0  0  0  0  0  0  0  0  0
   22.1360   11.3170   31.2530 O   0  0  0  0  0  0  0  0  0  0  0  0
   21.5050   10.1730   31.5930 C   0  0  0  0  0  0  0  0  0  0  0  0
   21.9860    8.9880   31.1500 N   0  0  0  0  0  0  0  0  0  0  0  0
   21.2550    7.8480   31.4570 C   0  0  0  0  0  0  0  0  0  0  0  0
   20.1000    7.8820   32.2320 C   0  0  0  0  0  0  0  0  0  0  0  0
   19.6150    9.1290   32.7090 C   0  0  0  0  0  0  0  0  0  0  0  0
   18.4740    9.1650   33.4710 N   0  0  0  0  0  0  0  0  0  0  0  0
   20.3190   10.3280   32.3720 C   0  0  0  0  0  0  0  0  0  0  0  0
   19.8930   11.6260   32.7230 C   0  0  0  0  0  0  0  0  0  0  0  0
   19.5890   12.7190   32.9670 N   0  0  0  0  0  0  0  0  0  0  0  0
   21.8160    6.6890   30.8760 N   0  0  0  0  0  0  0  0  0  0  0  0
   21.2060    5.4150   30.7890 C   0  0  0  0  0  0  0  0  0  0  0  0
   20.1320    5.1660   31.2930 O   0  0  0  0  0  0  0  0  0  0  0  0
   21.9940    4.4240   29.9410 C   0  0  0  0  0  0  0  0  0  0  0  0
   23.3210    4.0590   30.5370 C   0  0  0  0  0  0  0  0  0  0  0  0
   24.4620    4.8680   30.3020 C   0  0  0  0  0  0  0  0  0  0  0  0
   24.2030    5.9550   29.4800 O   0  0  0  0  0  0  0  0  0  0  0  0
   25.2390    6.9650   29.3420 C   0  0  0  0  0  0  0  0  0  0  0  0
   25.7120    4.5520   30.8420 C   0  0  0  0  0  0  0  0  0  0  0  0
   25.8380    3.4080   31.6280 C   0  0  0  0  0  0  0  0  0  0  0  0
   27.5400    2.9750   32.3540 Br  0  0  0  0  0  0  0  0  0  0  0  0
   24.7190    2.5840   31.8650 C   0  0  0  0  0  0  0  0  0  0  0  0
   23.4680    2.9080   31.3130 C   0  0  0  0  0  0  0  0  0  0  0  0
   24.9870    1.5060   32.6730 O   0  0  0  0  0  0  0  0  0  0  0  0
   23.9640    0.4820   32.7970 C   0  0  0  0  0  0  0  0  0  0  0  0
   24.0660   13.1020   31.3490 H   0  0  0  0  0  0  0  0  0  0  0  0
   23.0430   13.3010   29.8670 H   0  0  0  0  0  0  0  0  0  0  0  0
   24.7490   12.7200   29.7130 H   0  0  0  0  0  0  0  0  0  0  0  0
   23.1220   10.7890   29.4660 H   0  0  0  0  0  0  0  0  0  0  0  0
   24.1120   10.5960   31.0130 H   0  0  0  0  0  0  0  0  0  0  0  0
   19.5470    6.9690   32.4630 H   0  0  0  0  0  0  0  0  0  0  0  0
   17.9670    8.2920   33.7150 H   0  0  0  0  0  0  0  0  0  0  0  0
   18.0680   10.0480   33.7780 H   0  0  0  0  0  0  0  0  0  0  0  0
   22.7360    6.8300   30.3900 H   0  0  0  0  0  0  0  0  0  0  0  0
   21.3720    3.5000   29.8070 H   0  0  0  0  0  0  0  0  0  0  0  0
   22.1600    4.8880   28.9290 H   0  0  0  0  0  0  0  0  0  0  0  0
   24.7080    7.7450   28.7480 H   0  0  0  0  0  0  0  0  0  0  0  0
   25.5390    7.3550   30.3380 H   0  0  0  0  0  0  0  0  0  0  0  0
   26.0980    6.5420   28.7790 H   0  0  0  0  0  0  0  0  0  0  0  0
   26.5880    5.1820   30.6460 H   0  0  0  0  0  0  0  0  0  0  0  0
   22.6060    2.2600   31.4900 H   0  0  0  0  0  0  0  0  0  0  0  0
   24.4860   -0.2730   33.4340 H   0  0  0  0  0  0  0  0  0  0  0  0
   23.0680    0.8880   33.3140 H   0  0  0  0  0  0  0  0  0  0  0  0
   23.7230    0.0610   31.7970 H   0  0  0  0  0  0  0  0  0  0  0  0
  1  2  1  0  0  0  0
  1 28  1  0  0  0  0
  1 29  1  0  0  0  0
  1 30  1  0  0  0  0
  2  3  1  0  0  0  0
  2 31  1  0  0  0  0
  2 32  1  0  0  0  0
  3  4  1  0  0  0  0
  4 10  2  0  0  0  0
  4  5  1  0  0  0  0
  5  6  2  0  0  0  0
  6  7  1  0  0  0  0
  6 13  1  0  0  0  0
  7  8  2  0  0  0  0
  7 33  1  0  0  0  0
  8  9  1  0  0  0  0
  8 10  1  0  0  0  0
  9 34  1  0  0  0  0
  9 35  1  0  0  0  0
 10 11  1  0  0  0  0
 11 12  3  0  0  0  0
 13 14  1  0  0  0  0
 13 36  1  0  0  0  0
 14 15  2  0  0  0  0
 14 16  1  0  0  0  0
 16 17  1  0  0  0  0
 16 37  1  0  0  0  0
 16 38  1  0  0  0  0
 17 25  2  0  0  0  0
 17 18  1  0  0  0  0
 18 19  1  0  0  0  0
 18 21  2  0  0  0  0
 19 20  1  0  0  0  0
 20 39  1  0  0  0  0
 20 40  1  0  0  0  0
 20 41  1  0  0  0  0
 21 22  1  0  0  0  0
 21 42  1  0  0  0  0
 22 23  1  0  0  0  0
 22 24  2  0  0  0  0
 24 25  1  0  0  0  0
 24 26  1  0  0  0  0
 25 43  1  0  0  0  0
 26 27  1  0  0  0  0
 27 44  1  0  0  0  0
 27 45  1  0  0  0  0
 27 46  1  0  0  0  0
M  END
$$$$
