18639-1
 OpenBabel02232411163D
Structure written by MMmdl.
 48 49  0  0  0  0  0  0  0  0999 V2000
   23.9090   12.5770   30.3480 C   0  0  0  0  0  0  0  0  0  0  0  0
   23.4380   11.1390   30.4510 C   0  0  0  0  0  0  0  0  0  0  0  0
   22.1880   11.2500   31.2480 O   0  0  0  0  0  0  0  0  0  0  0  0
   21.5530   10.1130   31.6000 C   0  0  0  0  0  0  0  0  0  0  0  0
   22.0280    8.9230   31.1580 N   0  0  0  0  0  0  0  0  0  0  0  0
   21.3000    7.7880   31.4790 C   0  0  0  0  0  0  0  0  0  0  0  0
   20.1440    7.8270   32.2520 C   0  0  0  0  0  0  0  0  0  0  0  0
   19.6630    9.0770   32.7270 C   0  0  0  0  0  0  0  0  0  0  0  0
   18.5170    9.1150   33.4790 N   0  0  0  0  0  0  0  0  0  0  0  0
   20.3770   10.2730   32.3930 C   0  0  0  0  0  0  0  0  0  0  0  0
   19.9710   11.5710   32.7650 C   0  0  0  0  0  0  0  0  0  0  0  0
   19.6860   12.6640   33.0310 N   0  0  0  0  0  0  0  0  0  0  0  0
   21.8690    6.6180   30.9230 N   0  0  0  0  0  0  0  0  0  0  0  0
   21.2550    5.3510   30.8340 C   0  0  0  0  0  0  0  0  0  0  0  0
   20.1590    5.1150   31.2950 O   0  0  0  0  0  0  0  0  0  0  0  0
   22.0650    4.3370   30.0350 C   0  0  0  0  0  0  0  0  0  0  0  0
   23.4160    4.0300   30.6110 C   0  0  0  0  0  0  0  0  0  0  0  0
   24.5350    4.8690   30.3120 C   0  0  0  0  0  0  0  0  0  0  0  0
   24.2110    5.9200   29.4640 O   0  0  0  0  0  0  0  0  0  0  0  0
   25.1950    6.9770   29.2930 C   0  0  0  0  0  0  0  0  0  0  0  0
   25.8000    4.6030   30.8120 C   0  0  0  0  0  0  0  0  0  0  0  0
   25.9920    3.4830   31.6480 C   0  0  0  0  0  0  0  0  0  0  0  0
   27.3290    3.2010   32.1780 N   0  3  0  0  0  0  0  0  0  0  0  0
   27.4260    2.4260   33.1170 O   0  5  0  0  0  0  0  0  0  0  0  0
   28.2930    3.7480   31.6560 O   0  0  0  0  0  0  0  0  0  0  0  0
   24.8990    2.6370   31.9450 C   0  0  0  0  0  0  0  0  0  0  0  0
   23.6190    2.9170   31.4110 C   0  0  0  0  0  0  0  0  0  0  0  0
   25.2100    1.5920   32.7630 O   0  0  0  0  0  0  0  0  0  0  0  0
   24.1940    0.5680   32.9720 C   0  0  0  0  0  0  0  0  0  0  0  0
   24.7980   12.6120   29.6680 H   0  0  0  0  0  0  0  0  0  0  0  0
   23.1150   13.2280   29.9130 H   0  0  0  0  0  0  0  0  0  0  0  0
   24.2030   12.9830   31.3410 H   0  0  0  0  0  0  0  0  0  0  0  0
   23.1660   10.7070   29.4620 H   0  0  0  0  0  0  0  0  0  0  0  0
   24.1520   10.4930   31.0090 H   0  0  0  0  0  0  0  0  0  0  0  0
   19.5890    6.9150   32.4830 H   0  0  0  0  0  0  0  0  0  0  0  0
   18.0150    8.2430   33.7320 H   0  0  0  0  0  0  0  0  0  0  0  0
   18.1150    9.9990   33.7910 H   0  0  0  0  0  0  0  0  0  0  0  0
   22.7920    6.7530   30.4400 H   0  0  0  0  0  0  0  0  0  0  0  0
   21.4680    3.3890   29.9590 H   0  0  0  0  0  0  0  0  0  0  0  0
   22.2020    4.7540   28.9970 H   0  0  0  0  0  0  0  0  0  0  0  0
   25.5160    7.3780   30.2790 H   0  0  0  0  0  0  0  0  0  0  0  0
   26.0460    6.5910   28.6930 H   0  0  0  0  0  0  0  0  0  0  0  0
   24.6040    7.7330   28.7270 H   0  0  0  0  0  0  0  0  0  0  0  0
   26.6580    5.2380   30.5610 H   0  0  0  0  0  0  0  0  0  0  0  0
   22.7850    2.2440   31.6280 H   0  0  0  0  0  0  0  0  0  0  0  0
   24.7540   -0.1750   33.5890 H   0  0  0  0  0  0  0  0  0  0  0  0
   23.3350    0.9900   33.5370 H   0  0  0  0  0  0  0  0  0  0  0  0
   23.8880    0.1280   31.9980 H   0  0  0  0  0  0  0  0  0  0  0  0
  1  2  1  0  0  0  0
  1 30  1  0  0  0  0
  1 31  1  0  0  0  0
  1 32  1  0  0  0  0
  2  3  1  0  0  0  0
  2 33  1  0  0  0  0
  2 34  1  0  0  0  0
  3  4  1  0  0  0  0
  4 10  2  0  0  0  0
  4  5  1  0  0  0  0
  5  6  2  0  0  0  0
  6  7  1  0  0  0  0
  6 13  1  0  0  0  0
  7  8  2  0  0  0  0
  7 35  1  0  0  0  0
  8  9  1  0  0  0  0
  8 10  1  0  0  0  0
  9 36  1  0  0  0  0
  9 37  1  0  0  0  0
 10 11  1  0  0  0  0
 11 12  3  0  0  0  0
 13 14  1  0  0  0  0
 13 38  1  0  0  0  0
 14 15  2  0  0  0  0
 14 16  1  0  0  0  0
 16 17  1  0  0  0  0
 16 39  1  0  0  0  0
 16 40  1  0  0  0  0
 17 27  2  0  0  0  0
 17 18  1  0  0  0  0
 18 19  1  0  0  0  0
 18 21  2  0  0  0  0
 19 20  1  0  0  0  0
 20 41  1  0  0  0  0
 20 42  1  0  0  0  0
 20 43  1  0  0  0  0
 21 22  1  0  0  0  0
 21 44  1  0  0  0  0
 22 23  1  0  0  0  0
 22 26  2  0  0  0  0
 23 24  1  0  0  0  0
 23 25  2  0  0  0  0
 26 27  1  0  0  0  0
 26 28  1  0  0  0  0
 27 45  1  0  0  0  0
 28 29  1  0  0  0  0
 29 46  1  0  0  0  0
 29 47  1  0  0  0  0
 29 48  1  0  0  0  0
M  CHG  2  23   1  24  -1
M  END
$$$$
