p38a_2n
 OpenBabel02232411163D
Structure written by MMmdl.
 53 56  0  0  0  0  0  0  0  0999 V2000
   38.3080   36.5640   17.1470 C   0  0  0  0  0  0  0  0  0  0  0  0
   34.4950   35.1080   21.1890 C   0  0  0  0  0  0  0  0  0  0  0  0
   37.5310   36.1050   18.2080 C   0  0  0  0  0  0  0  0  0  0  0  0
   33.9490   39.1910   23.7300 C   0  0  0  0  0  0  0  0  0  0  0  0
   34.6380   37.9850   21.3480 C   0  0  0  0  0  0  0  0  0  0  0  0
   35.0740   37.3210   20.1490 C   0  0  0  0  0  0  0  0  0  0  0  0
   37.6550   36.7140   15.9160 C   0  0  0  0  0  0  0  0  0  0  0  0
   36.3080   36.4040   15.7150 C   0  0  0  0  0  0  0  0  0  0  0  0
   35.5520   35.9300   16.7930 C   0  0  0  0  0  0  0  0  0  0  0  0
   34.1980   37.2180   22.4670 C   0  0  0  0  0  0  0  0  0  0  0  0
   34.6380   39.3980   21.4990 C   0  0  0  0  0  0  0  0  0  0  0  0
   35.0390   35.9700   20.1050 C   0  0  0  0  0  0  0  0  0  0  0  0
   36.1710   35.7720   18.0360 C   0  0  0  0  0  0  0  0  0  0  0  0
   38.0670   35.9790   19.4150 F   0  0  0  0  0  0  0  0  0  0  0  0
   35.4630   35.1420   19.0680 O   0  0  0  0  0  0  0  0  0  0  0  0
   34.3120   40.0140   22.6460 N   0  0  0  0  0  0  0  0  0  0  0  0
   34.3770   33.9030   21.1350 O   0  0  0  0  0  0  0  0  0  0  0  0
   34.0720   35.8210   22.3660 N   0  0  0  0  0  0  0  0  0  0  0  0
   33.8800   37.8140   23.6600 N   0  0  0  0  0  0  0  0  0  0  0  0
   33.5780   39.8060   24.9070 N   0  0  0  0  0  0  0  0  0  0  0  0
   39.3600   36.8310   17.2780 H   0  0  0  0  0  0  0  0  0  0  0  0
   35.4320   37.9360   19.3210 H   0  0  0  0  0  0  0  0  0  0  0  0
   35.8340   36.5410   14.7400 H   0  0  0  0  0  0  0  0  0  0  0  0
   34.4900   35.7040   16.6570 H   0  0  0  0  0  0  0  0  0  0  0  0
   34.9110   40.0380   20.6450 H   0  0  0  0  0  0  0  0  0  0  0  0
   33.7330   40.8260   25.0230 H   0  0  0  0  0  0  0  0  0  0  0  0
   38.3450   37.2160   14.8950 F   0  0  0  0  0  0  0  0  0  0  0  0
   32.2370   39.0660   28.4050 C   0  0  0  0  0  0  0  0  0  0  0  0
   32.3530   39.7630   27.0440 C   0  0  0  0  0  0  0  0  0  0  0  0
   33.4010   39.0350   26.1750 C   0  0  0  0  0  0  0  0  0  0  0  0
   34.7440   38.9220   26.9320 C   0  0  0  0  0  0  0  0  0  0  0  0
   34.5140   38.2730   28.3020 C   0  0  0  0  0  0  0  0  0  0  0  0
   33.5180   38.9850   29.0710 O   0  0  0  0  0  0  0  0  0  0  0  0
   31.8200   38.0380   28.2920 H   0  0  0  0  0  0  0  0  0  0  0  0
   31.6380   39.6740   29.1210 H   0  0  0  0  0  0  0  0  0  0  0  0
   32.6550   40.8260   27.1940 H   0  0  0  0  0  0  0  0  0  0  0  0
   31.3650   39.7450   26.5270 H   0  0  0  0  0  0  0  0  0  0  0  0
   33.0210   38.0040   25.9270 H   0  0  0  0  0  0  0  0  0  0  0  0
   35.4560   38.2940   26.3450 H   0  0  0  0  0  0  0  0  0  0  0  0
   35.1920   39.9360   27.0610 H   0  0  0  0  0  0  0  0  0  0  0  0
   34.1910   37.2110   28.1880 H   0  0  0  0  0  0  0  0  0  0  0  0
   35.4180   38.3600   28.9470 H   0  0  0  0  0  0  0  0  0  0  0  0
   33.4940   35.0440   23.5100 C   0  0  0  0  0  0  0  0  0  0  0  0
   32.7410   35.6910   24.0460 H   0  0  0  0  0  0  0  0  0  0  0  0
   32.9560   34.1520   23.0860 H   0  0  0  0  0  0  0  0  0  0  0  0
   34.5740   34.5890   24.5030 C   0  0  0  0  0  0  0  0  0  0  0  0
   35.2650   33.8540   24.0270 H   0  0  0  0  0  0  0  0  0  0  0  0
   35.1690   35.4680   24.8510 H   0  0  0  0  0  0  0  0  0  0  0  0
   33.9010   33.9270   25.7190 C   0  0  0  0  0  0  0  0  0  0  0  0
   33.5610   34.6910   26.4560 H   0  0  0  0  0  0  0  0  0  0  0  0
   33.0580   33.2620   25.4190 H   0  0  0  0  0  0  0  0  0  0  0  0
   34.8180   33.0210   26.3540 O   0  0  0  0  0  0  0  0  0  0  0  0
   35.4650   33.5590   26.9100 H   0  0  0  0  0  0  0  0  0  0  0  0
  1  3  2  0  0  0  0
  1  7  1  0  0  0  0
  1 21  1  0  0  0  0
  2 12  1  0  0  0  0
  2 17  2  0  0  0  0
  2 18  1  0  0  0  0
  3 13  1  0  0  0  0
  3 14  1  0  0  0  0
  4 16  2  0  0  0  0
  4 19  1  0  0  0  0
  4 20  1  0  0  0  0
  5  6  1  0  0  0  0
  5 10  1  0  0  0  0
  5 11  2  0  0  0  0
  6 12  2  0  0  0  0
  6 22  1  0  0  0  0
  7  8  2  0  0  0  0
  7 27  1  0  0  0  0
  8  9  1  0  0  0  0
  8 23  1  0  0  0  0
  9 13  2  0  0  0  0
  9 24  1  0  0  0  0
 10 18  1  0  0  0  0
 10 19  2  0  0  0  0
 11 16  1  0  0  0  0
 11 25  1  0  0  0  0
 12 15  1  0  0  0  0
 13 15  1  0  0  0  0
 18 43  1  0  0  0  0
 20 26  1  0  0  0  0
 20 30  1  0  0  0  0
 28 29  1  0  0  0  0
 28 33  1  0  0  0  0
 28 34  1  0  0  0  0
 28 35  1  0  0  0  0
 29 30  1  0  0  0  0
 29 36  1  0  0  0  0
 29 37  1  0  0  0  0
 30 31  1  0  0  0  0
 30 38  1  0  0  0  0
 31 32  1  0  0  0  0
 31 39  1  0  0  0  0
 31 40  1  0  0  0  0
 32 33  1  0  0  0  0
 32 41  1  0  0  0  0
 32 42  1  0  0  0  0
 43 44  1  0  0  0  0
 43 45  1  0  0  0  0
 43 46  1  0  0  0  0
 46 47  1  0  0  0  0
 46 48  1  0  0  0  0
 46 49  1  0  0  0  0
 49 50  1  0  0  0  0
 49 51  1  0  0  0  0
 49 52  1  0  0  0  0
 52 53  1  0  0  0  0
M  END
$$$$
