p38a_2o
 OpenBabel02232411163D
Structure written by MMmdl.
 55 58  0  0  0  0  0  0  0  0999 V2000
   38.2420   36.4980   17.2090 C   0  0  0  0  0  0  0  0  0  0  0  0
   34.5490   34.9570   21.2650 C   0  0  0  0  0  0  0  0  0  0  0  0
   37.4490   36.0410   18.2590 C   0  0  0  0  0  0  0  0  0  0  0  0
   33.9920   38.9660   23.9240 C   0  0  0  0  0  0  0  0  0  0  0  0
   34.6430   37.8240   21.5000 C   0  0  0  0  0  0  0  0  0  0  0  0
   35.0200   37.2080   20.2580 C   0  0  0  0  0  0  0  0  0  0  0  0
   37.6060   36.6560   15.9700 C   0  0  0  0  0  0  0  0  0  0  0  0
   36.2590   36.3580   15.7530 C   0  0  0  0  0  0  0  0  0  0  0  0
   35.4870   35.8880   16.8200 C   0  0  0  0  0  0  0  0  0  0  0  0
   34.2790   37.0220   22.6210 C   0  0  0  0  0  0  0  0  0  0  0  0
   34.6360   39.2360   21.6850 C   0  0  0  0  0  0  0  0  0  0  0  0
   35.0000   35.8580   20.1740 C   0  0  0  0  0  0  0  0  0  0  0  0
   36.0890   35.7170   18.0710 C   0  0  0  0  0  0  0  0  0  0  0  0
   37.9750   35.9050   19.4690 F   0  0  0  0  0  0  0  0  0  0  0  0
   35.3550   35.0740   19.0760 O   0  0  0  0  0  0  0  0  0  0  0  0
   34.3300   39.8180   22.8510 N   0  0  0  0  0  0  0  0  0  0  0  0
   34.4350   33.7540   21.1690 O   0  0  0  0  0  0  0  0  0  0  0  0
   34.2540   35.6140   22.5130 N   0  0  0  0  0  0  0  0  0  0  0  0
   33.9560   37.5840   23.8260 N   0  0  0  0  0  0  0  0  0  0  0  0
   33.6510   39.5440   25.1180 N   0  0  0  0  0  0  0  0  0  0  0  0
   39.2950   36.7560   17.3530 H   0  0  0  0  0  0  0  0  0  0  0  0
   35.3190   37.8520   19.4270 H   0  0  0  0  0  0  0  0  0  0  0  0
   35.7960   36.5020   14.7740 H   0  0  0  0  0  0  0  0  0  0  0  0
   34.4240   35.6700   16.6730 H   0  0  0  0  0  0  0  0  0  0  0  0
   34.8920   39.8990   20.8400 H   0  0  0  0  0  0  0  0  0  0  0  0
   33.7140   40.5740   25.2300 H   0  0  0  0  0  0  0  0  0  0  0  0
   38.3150   37.1530   14.9590 F   0  0  0  0  0  0  0  0  0  0  0  0
   33.2210   40.4820   28.1980 C   0  0  0  0  0  0  0  0  0  0  0  0
   32.4140   39.5680   27.2670 C   0  0  0  0  0  0  0  0  0  0  0  0
   33.2870   38.7220   26.3210 C   0  0  0  0  0  0  0  0  0  0  0  0
   34.5430   38.1690   27.0260 C   0  0  0  0  0  0  0  0  0  0  0  0
   35.2370   39.2160   27.8980 C   0  0  0  0  0  0  0  0  0  0  0  0
   34.3070   39.7880   28.8470 O   0  0  0  0  0  0  0  0  0  0  0  0
   32.6030   40.8250   29.0600 H   0  0  0  0  0  0  0  0  0  0  0  0
   33.6410   41.3460   27.6360 H   0  0  0  0  0  0  0  0  0  0  0  0
   31.7120   40.2000   26.6670 H   0  0  0  0  0  0  0  0  0  0  0  0
   31.7990   38.8610   27.8800 H   0  0  0  0  0  0  0  0  0  0  0  0
   32.6710   37.8490   25.9520 H   0  0  0  0  0  0  0  0  0  0  0  0
   34.2220   37.3030   27.6600 H   0  0  0  0  0  0  0  0  0  0  0  0
   35.2640   37.7740   26.2690 H   0  0  0  0  0  0  0  0  0  0  0  0
   36.0010   38.7530   28.5630 H   0  0  0  0  0  0  0  0  0  0  0  0
   35.6690   40.0340   27.2770 H   0  0  0  0  0  0  0  0  0  0  0  0
   33.9100   34.7650   23.7110 C   0  0  0  0  0  0  0  0  0  0  0  0
   34.4440   33.7820   23.5770 H   0  0  0  0  0  0  0  0  0  0  0  0
   34.3080   35.2810   24.6320 H   0  0  0  0  0  0  0  0  0  0  0  0
   32.4000   34.5440   23.8340 C   0  0  0  0  0  0  0  0  0  0  0  0
   31.8970   35.5500   23.9010 H   0  0  0  0  0  0  0  0  0  0  0  0
   32.0230   34.0680   22.8880 H   0  0  0  0  0  0  0  0  0  0  0  0
   31.8750   33.5610   25.2130 S   0  0  0  0  0  0  0  0  0  0  0  0
   30.4700   33.1470   24.9800 O   0  0  0  0  0  0  0  0  0  0  0  0
   32.0150   34.2890   26.4900 O   0  0  0  0  0  0  0  0  0  0  0  0
   32.8820   32.1480   25.2260 C   0  0  0  0  0  0  0  0  0  0  0  0
   33.9360   32.3720   25.5420 H   0  0  0  0  0  0  0  0  0  0  0  0
   32.5040   31.3750   25.9470 H   0  0  0  0  0  0  0  0  0  0  0  0
   32.9390   31.6460   24.2280 H   0  0  0  0  0  0  0  0  0  0  0  0
  1  3  2  0  0  0  0
  1  7  1  0  0  0  0
  1 21  1  0  0  0  0
  2 12  1  0  0  0  0
  2 17  2  0  0  0  0
  2 18  1  0  0  0  0
  3 13  1  0  0  0  0
  3 14  1  0  0  0  0
  4 16  2  0  0  0  0
  4 19  1  0  0  0  0
  4 20  1  0  0  0  0
  5  6  1  0  0  0  0
  5 10  1  0  0  0  0
  5 11  2  0  0  0  0
  6 12  2  0  0  0  0
  6 22  1  0  0  0  0
  7  8  2  0  0  0  0
  7 27  1  0  0  0  0
  8  9  1  0  0  0  0
  8 23  1  0  0  0  0
  9 13  2  0  0  0  0
  9 24  1  0  0  0  0
 10 18  1  0  0  0  0
 10 19  2  0  0  0  0
 11 16  1  0  0  0  0
 11 25  1  0  0  0  0
 12 15  1  0  0  0  0
 13 15  1  0  0  0  0
 18 43  1  0  0  0  0
 20 26  1  0  0  0  0
 20 30  1  0  0  0  0
 28 29  1  0  0  0  0
 28 33  1  0  0  0  0
 28 34  1  0  0  0  0
 28 35  1  0  0  0  0
 29 30  1  0  0  0  0
 29 36  1  0  0  0  0
 29 37  1  0  0  0  0
 30 31  1  0  0  0  0
 30 38  1  0  0  0  0
 31 32  1  0  0  0  0
 31 39  1  0  0  0  0
 31 40  1  0  0  0  0
 32 33  1  0  0  0  0
 32 41  1  0  0  0  0
 32 42  1  0  0  0  0
 43 44  1  0  0  0  0
 43 45  1  0  0  0  0
 43 46  1  0  0  0  0
 46 47  1  0  0  0  0
 46 48  1  0  0  0  0
 46 49  1  0  0  0  0
 49 50  2  0  0  0  0
 49 51  2  0  0  0  0
 49 52  1  0  0  0  0
 52 53  1  0  0  0  0
 52 54  1  0  0  0  0
 52 55  1  0  0  0  0
M  END
$$$$
