p38a_3flw
 OpenBabel02232411163D
Structure written by MMmdl.
 49 51  0  0  0  0  0  0  0  0999 V2000
   38.1780   36.4620   17.2880 C   0  0  0  0  0  0  0  0  0  0  0  0
   37.5280   36.6140   16.0550 C   0  0  0  0  0  0  0  0  0  0  0  0
   33.9510   39.9920   27.8160 C   0  0  0  0  0  0  0  0  0  0  0  0
   35.3600   39.7180   28.3600 C   0  0  0  0  0  0  0  0  0  0  0  0
   32.0830   39.2520   26.2640 C   0  0  0  0  0  0  0  0  0  0  0  0
   34.3490   35.1060   24.0090 C   0  0  0  0  0  0  0  0  0  0  0  0
   37.9280   35.9240   19.5630 F   0  0  0  0  0  0  0  0  0  0  0  0
   37.3840   36.0720   18.3630 C   0  0  0  0  0  0  0  0  0  0  0  0
   38.2430   37.0460   15.0190 F   0  0  0  0  0  0  0  0  0  0  0  0
   36.1650   36.3720   15.8690 C   0  0  0  0  0  0  0  0  0  0  0  0
   35.3890   35.9820   16.9660 C   0  0  0  0  0  0  0  0  0  0  0  0
   36.0020   35.8250   18.2130 C   0  0  0  0  0  0  0  0  0  0  0  0
   35.2490   35.2650   19.2540 O   0  0  0  0  0  0  0  0  0  0  0  0
   35.0160   36.0820   20.3580 C   0  0  0  0  0  0  0  0  0  0  0  0
   35.0690   37.4320   20.4100 C   0  0  0  0  0  0  0  0  0  0  0  0
   34.8160   38.0830   21.6680 C   0  0  0  0  0  0  0  0  0  0  0  0
   34.7810   39.4940   21.8130 C   0  0  0  0  0  0  0  0  0  0  0  0
   34.5860   40.1020   22.9950 N   0  0  0  0  0  0  0  0  0  0  0  0
   34.6310   35.2180   21.5090 C   0  0  0  0  0  0  0  0  0  0  0  0
   34.4100   34.0300   21.4570 O   0  0  0  0  0  0  0  0  0  0  0  0
   34.5270   35.9130   22.7700 N   0  0  0  0  0  0  0  0  0  0  0  0
   34.5860   37.3100   22.8450 C   0  0  0  0  0  0  0  0  0  0  0  0
   34.3840   37.9080   24.0680 N   0  0  0  0  0  0  0  0  0  0  0  0
   34.4110   39.2830   24.1200 C   0  0  0  0  0  0  0  0  0  0  0  0
   34.3310   39.9180   25.3610 N   0  0  0  0  0  0  0  0  0  0  0  0
   33.6160   39.2510   26.5020 C   0  0  0  0  0  0  0  0  0  0  0  0
   31.4730   37.8490   26.3860 C   0  0  0  0  0  0  0  0  0  0  0  0
   31.6380   37.0880   25.1810 O   0  0  0  0  0  0  0  0  0  0  0  0
   36.3670   40.4730   27.6680 O   0  0  0  0  0  0  0  0  0  0  0  0
   39.2460   36.6730   17.4040 H   0  0  0  0  0  0  0  0  0  0  0  0
   33.2200   39.6430   28.5940 H   0  0  0  0  0  0  0  0  0  0  0  0
   33.8060   41.0920   27.6860 H   0  0  0  0  0  0  0  0  0  0  0  0
   35.4450   40.0750   29.4130 H   0  0  0  0  0  0  0  0  0  0  0  0
   35.6130   38.6340   28.2800 H   0  0  0  0  0  0  0  0  0  0  0  0
   31.5910   39.9210   27.0110 H   0  0  0  0  0  0  0  0  0  0  0  0
   31.8410   39.6690   25.2580 H   0  0  0  0  0  0  0  0  0  0  0  0
   34.8960   35.5810   24.8690 H   0  0  0  0  0  0  0  0  0  0  0  0
   33.2610   35.0340   24.2710 H   0  0  0  0  0  0  0  0  0  0  0  0
   34.7590   34.0730   23.8540 H   0  0  0  0  0  0  0  0  0  0  0  0
   35.6960   36.4980   14.8900 H   0  0  0  0  0  0  0  0  0  0  0  0
   34.3140   35.8130   16.8410 H   0  0  0  0  0  0  0  0  0  0  0  0
   35.3060   38.0540   19.5420 H   0  0  0  0  0  0  0  0  0  0  0  0
   34.8980   40.1400   20.9270 H   0  0  0  0  0  0  0  0  0  0  0  0
   34.1510   40.9500   25.3380 H   0  0  0  0  0  0  0  0  0  0  0  0
   33.9980   38.1960   26.5790 H   0  0  0  0  0  0  0  0  0  0  0  0
   31.9360   37.2850   27.2310 H   0  0  0  0  0  0  0  0  0  0  0  0
   30.3700   37.9130   26.5070 H   0  0  0  0  0  0  0  0  0  0  0  0
   32.5850   37.1480   24.9040 H   0  0  0  0  0  0  0  0  0  0  0  0
   36.1600   40.4260   26.7050 H   0  0  0  0  0  0  0  0  0  0  0  0
  1  2  2  0  0  0  0
  1  8  1  0  0  0  0
  1 30  1  0  0  0  0
  2  9  1  0  0  0  0
  2 10  1  0  0  0  0
  3  4  1  0  0  0  0
  3 26  1  0  0  0  0
  3 31  1  0  0  0  0
  3 32  1  0  0  0  0
  4 29  1  0  0  0  0
  4 33  1  0  0  0  0
  4 34  1  0  0  0  0
  5 26  1  0  0  0  0
  5 27  1  0  0  0  0
  5 35  1  0  0  0  0
  5 36  1  0  0  0  0
  6 21  1  0  0  0  0
  6 37  1  0  0  0  0
  6 38  1  0  0  0  0
  6 39  1  0  0  0  0
  7  8  1  0  0  0  0
  8 12  2  0  0  0  0
 10 11  2  0  0  0  0
 10 40  1  0  0  0  0
 11 12  1  0  0  0  0
 11 41  1  0  0  0  0
 12 13  1  0  0  0  0
 13 14  1  0  0  0  0
 14 15  2  0  0  0  0
 14 19  1  0  0  0  0
 15 16  1  0  0  0  0
 15 42  1  0  0  0  0
 16 17  2  0  0  0  0
 16 22  1  0  0  0  0
 17 18  1  0  0  0  0
 17 43  1  0  0  0  0
 18 24  2  0  0  0  0
 19 20  2  0  0  0  0
 19 21  1  0  0  0  0
 21 22  1  0  0  0  0
 22 23  2  0  0  0  0
 23 24  1  0  0  0  0
 24 25  1  0  0  0  0
 25 26  1  0  0  0  0
 25 44  1  0  0  0  0
 26 45  1  0  0  0  0
 27 28  1  0  0  0  0
 27 46  1  0  0  0  0
 27 47  1  0  0  0  0
 28 48  1  0  0  0  0
 29 49  1  0  0  0  0
M  END
$$$$
