p38a_2aa
 OpenBabel02232411163D
Structure written by MMmdl.
 43 45  0  0  0  0  0  0  0  0999 V2000
   38.2500   36.5080   17.2070 C   0  0  0  0  0  0  0  0  0  0  0  0
   34.5260   35.1800   21.3280 C   0  0  0  0  0  0  0  0  0  0  0  0
   37.4670   36.0730   18.2720 C   0  0  0  0  0  0  0  0  0  0  0  0
   34.0970   39.3210   23.7870 C   0  0  0  0  0  0  0  0  0  0  0  0
   33.4560   39.4140   26.2490 C   0  0  0  0  0  0  0  0  0  0  0  0
   34.6510   38.0570   21.4050 C   0  0  0  0  0  0  0  0  0  0  0  0
   35.0240   37.3660   20.2000 C   0  0  0  0  0  0  0  0  0  0  0  0
   37.5990   36.6580   15.9750 C   0  0  0  0  0  0  0  0  0  0  0  0
   36.2470   36.3670   15.7780 C   0  0  0  0  0  0  0  0  0  0  0  0
   35.4840   35.9210   16.8630 C   0  0  0  0  0  0  0  0  0  0  0  0
   34.2990   37.3190   22.5740 C   0  0  0  0  0  0  0  0  0  0  0  0
   34.6300   39.4730   21.5080 C   0  0  0  0  0  0  0  0  0  0  0  0
   35.0030   36.0140   20.1910 C   0  0  0  0  0  0  0  0  0  0  0  0
   36.0990   35.7670   18.1080 C   0  0  0  0  0  0  0  0  0  0  0  0
   33.8130   35.1800   23.7520 C   0  0  0  0  0  0  0  0  0  0  0  0
   38.0040   35.9430   19.4780 F   0  0  0  0  0  0  0  0  0  0  0  0
   35.3760   35.1680   19.1500 O   0  0  0  0  0  0  0  0  0  0  0  0
   34.3660   40.1150   22.6560 N   0  0  0  0  0  0  0  0  0  0  0  0
   34.3810   33.9770   21.3060 O   0  0  0  0  0  0  0  0  0  0  0  0
   34.2260   35.9190   22.5260 N   0  0  0  0  0  0  0  0  0  0  0  0
   34.0200   37.9480   23.7660 N   0  0  0  0  0  0  0  0  0  0  0  0
   33.9720   40.0050   24.9840 N   0  0  0  0  0  0  0  0  0  0  0  0
   39.3080   36.7590   17.3330 H   0  0  0  0  0  0  0  0  0  0  0  0
   32.0780   38.7240   26.0720 C   0  0  0  0  0  0  0  0  0  0  0  0
   35.3260   37.9630   19.3360 H   0  0  0  0  0  0  0  0  0  0  0  0
   35.7750   36.4980   14.8020 H   0  0  0  0  0  0  0  0  0  0  0  0
   34.4170   35.7130   16.7300 H   0  0  0  0  0  0  0  0  0  0  0  0
   34.8250   40.0910   20.6170 H   0  0  0  0  0  0  0  0  0  0  0  0
   34.5100   35.4200   24.6000 H   0  0  0  0  0  0  0  0  0  0  0  0
   32.7740   35.4870   24.0510 H   0  0  0  0  0  0  0  0  0  0  0  0
   33.8290   34.0750   23.5660 H   0  0  0  0  0  0  0  0  0  0  0  0
   33.8630   41.0400   24.9430 H   0  0  0  0  0  0  0  0  0  0  0  0
   38.2980   37.1400   14.9500 F   0  0  0  0  0  0  0  0  0  0  0  0
   34.5010   38.4580   26.8740 C   0  0  0  0  0  0  0  0  0  0  0  0
   35.6900   39.1740   27.2360 O   0  0  0  0  0  0  0  0  0  0  0  0
   36.0130   39.6660   26.4450 H   0  0  0  0  0  0  0  0  0  0  0  0
   34.1300   38.0660   27.8500 H   0  0  0  0  0  0  0  0  0  0  0  0
   34.7710   37.6280   26.1810 H   0  0  0  0  0  0  0  0  0  0  0  0
   31.3010   38.9160   27.2630 O   0  0  0  0  0  0  0  0  0  0  0  0
   31.4670   39.2440   25.2980 H   0  0  0  0  0  0  0  0  0  0  0  0
   32.1780   37.6370   25.8520 H   0  0  0  0  0  0  0  0  0  0  0  0
   31.6340   38.3210   27.9790 H   0  0  0  0  0  0  0  0  0  0  0  0
   33.3100   40.2910   26.9520 H   0  0  0  0  0  0  0  0  0  0  0  0
  1  3  2  0  0  0  0
  1  8  1  0  0  0  0
  1 23  1  0  0  0  0
  2 13  1  0  0  0  0
  2 19  2  0  0  0  0
  2 20  1  0  0  0  0
  3 14  1  0  0  0  0
  3 16  1  0  0  0  0
  4 18  2  0  0  0  0
  4 21  1  0  0  0  0
  4 22  1  0  0  0  0
  5 22  1  0  0  0  0
  5 24  1  0  0  0  0
  5 34  1  0  0  0  0
  5 43  1  0  0  0  0
  6  7  1  0  0  0  0
  6 11  1  0  0  0  0
  6 12  2  0  0  0  0
  7 13  2  0  0  0  0
  7 25  1  0  0  0  0
  8  9  2  0  0  0  0
  8 33  1  0  0  0  0
  9 10  1  0  0  0  0
  9 26  1  0  0  0  0
 10 14  2  0  0  0  0
 10 27  1  0  0  0  0
 11 20  1  0  0  0  0
 11 21  2  0  0  0  0
 12 18  1  0  0  0  0
 12 28  1  0  0  0  0
 13 17  1  0  0  0  0
 14 17  1  0  0  0  0
 15 20  1  0  0  0  0
 15 29  1  0  0  0  0
 15 30  1  0  0  0  0
 15 31  1  0  0  0  0
 22 32  1  0  0  0  0
 24 39  1  0  0  0  0
 24 40  1  0  0  0  0
 24 41  1  0  0  0  0
 34 35  1  0  0  0  0
 34 37  1  0  0  0  0
 34 38  1  0  0  0  0
 35 36  1  0  0  0  0
 39 42  1  0  0  0  0
M  END
$$$$
