p38a_2n
 OpenBabel02232411163D
Structure written by MMmdl.
 53 56  0  0  0  0  0  0  0  0999 V2000
   38.3340   36.5900   17.0750 C   0  0  0  0  0  0  0  0  0  0  0  0
   34.4930   34.9910   21.0560 C   0  0  0  0  0  0  0  0  0  0  0  0
   37.5630   36.1010   18.1250 C   0  0  0  0  0  0  0  0  0  0  0  0
   33.8350   39.0130   23.6710 C   0  0  0  0  0  0  0  0  0  0  0  0
   34.6360   37.8620   21.2980 C   0  0  0  0  0  0  0  0  0  0  0  0
   35.1050   37.2310   20.0950 C   0  0  0  0  0  0  0  0  0  0  0  0
   37.6790   36.7560   15.8470 C   0  0  0  0  0  0  0  0  0  0  0  0
   36.3350   36.4390   15.6400 C   0  0  0  0  0  0  0  0  0  0  0  0
   35.5860   35.9300   16.7060 C   0  0  0  0  0  0  0  0  0  0  0  0
   34.1450   37.0680   22.3760 C   0  0  0  0  0  0  0  0  0  0  0  0
   34.6500   39.2700   21.4880 C   0  0  0  0  0  0  0  0  0  0  0  0
   35.0640   35.8820   20.0100 C   0  0  0  0  0  0  0  0  0  0  0  0
   36.2080   35.7490   17.9440 C   0  0  0  0  0  0  0  0  0  0  0  0
   38.0960   35.9670   19.3330 F   0  0  0  0  0  0  0  0  0  0  0  0
   35.5120   35.0830   18.9600 O   0  0  0  0  0  0  0  0  0  0  0  0
   34.2710   39.8590   22.6330 N   0  0  0  0  0  0  0  0  0  0  0  0
   34.3930   33.7860   20.9670 O   0  0  0  0  0  0  0  0  0  0  0  0
   34.0280   35.6710   22.2350 N   0  0  0  0  0  0  0  0  0  0  0  0
   33.7700   37.6360   23.5660 N   0  0  0  0  0  0  0  0  0  0  0  0
   33.3940   39.6040   24.8330 N   0  0  0  0  0  0  0  0  0  0  0  0
   39.3820   36.8680   17.2130 H   0  0  0  0  0  0  0  0  0  0  0  0
   35.4870   37.8670   19.2950 H   0  0  0  0  0  0  0  0  0  0  0  0
   35.8570   36.5980   14.6710 H   0  0  0  0  0  0  0  0  0  0  0  0
   34.5260   35.6950   16.5660 H   0  0  0  0  0  0  0  0  0  0  0  0
   34.9810   39.9310   20.6700 H   0  0  0  0  0  0  0  0  0  0  0  0
   33.5460   40.6210   24.9800 H   0  0  0  0  0  0  0  0  0  0  0  0
   38.3640   37.2830   14.8350 F   0  0  0  0  0  0  0  0  0  0  0  0
   31.7180   38.7930   28.1680 C   0  0  0  0  0  0  0  0  0  0  0  0
   31.9750   39.5310   26.8480 C   0  0  0  0  0  0  0  0  0  0  0  0
   33.0870   38.8060   26.0600 C   0  0  0  0  0  0  0  0  0  0  0  0
   34.3520   38.6480   26.9340 C   0  0  0  0  0  0  0  0  0  0  0  0
   33.9830   37.9650   28.2570 C   0  0  0  0  0  0  0  0  0  0  0  0
   32.9280   38.6730   28.9490 O   0  0  0  0  0  0  0  0  0  0  0  0
   31.3010   37.7760   27.9790 H   0  0  0  0  0  0  0  0  0  0  0  0
   31.0560   39.3820   28.8430 H   0  0  0  0  0  0  0  0  0  0  0  0
   32.2820   40.5830   27.0550 H   0  0  0  0  0  0  0  0  0  0  0  0
   31.0400   39.5490   26.2380 H   0  0  0  0  0  0  0  0  0  0  0  0
   32.7130   37.7890   25.7500 H   0  0  0  0  0  0  0  0  0  0  0  0
   35.1040   38.0210   26.3970 H   0  0  0  0  0  0  0  0  0  0  0  0
   34.8040   39.6480   27.1320 H   0  0  0  0  0  0  0  0  0  0  0  0
   33.6560   36.9130   28.0840 H   0  0  0  0  0  0  0  0  0  0  0  0
   34.8230   38.0190   28.9870 H   0  0  0  0  0  0  0  0  0  0  0  0
   33.4030   34.8550   23.3280 C   0  0  0  0  0  0  0  0  0  0  0  0
   32.7520   35.5250   23.9600 H   0  0  0  0  0  0  0  0  0  0  0  0
   32.7460   34.0800   22.8460 H   0  0  0  0  0  0  0  0  0  0  0  0
   34.4560   34.1780   24.2190 C   0  0  0  0  0  0  0  0  0  0  0  0
   34.9770   33.3650   23.6620 H   0  0  0  0  0  0  0  0  0  0  0  0
   35.2180   34.9260   24.5460 H   0  0  0  0  0  0  0  0  0  0  0  0
   33.7740   33.5820   25.4630 C   0  0  0  0  0  0  0  0  0  0  0  0
   33.6990   34.3320   26.2860 H   0  0  0  0  0  0  0  0  0  0  0  0
   32.7720   33.1580   25.2210 H   0  0  0  0  0  0  0  0  0  0  0  0
   34.5880   32.5460   26.0370 O   0  0  0  0  0  0  0  0  0  0  0  0
   34.5710   31.7460   25.4290 H   0  0  0  0  0  0  0  0  0  0  0  0
  1  3  2  0  0  0  0
  1  7  1  0  0  0  0
  1 21  1  0  0  0  0
  2 12  1  0  0  0  0
  2 17  2  0  0  0  0
  2 18  1  0  0  0  0
  3 13  1  0  0  0  0
  3 14  1  0  0  0  0
  4 16  2  0  0  0  0
  4 19  1  0  0  0  0
  4 20  1  0  0  0  0
  5  6  1  0  0  0  0
  5 10  1  0  0  0  0
  5 11  2  0  0  0  0
  6 12  2  0  0  0  0
  6 22  1  0  0  0  0
  7  8  2  0  0  0  0
  7 27  1  0  0  0  0
  8  9  1  0  0  0  0
  8 23  1  0  0  0  0
  9 13  2  0  0  0  0
  9 24  1  0  0  0  0
 10 18  1  0  0  0  0
 10 19  2  0  0  0  0
 11 16  1  0  0  0  0
 11 25  1  0  0  0  0
 12 15  1  0  0  0  0
 13 15  1  0  0  0  0
 18 43  1  0  0  0  0
 20 26  1  0  0  0  0
 20 30  1  0  0  0  0
 28 29  1  0  0  0  0
 28 33  1  0  0  0  0
 28 34  1  0  0  0  0
 28 35  1  0  0  0  0
 29 30  1  0  0  0  0
 29 36  1  0  0  0  0
 29 37  1  0  0  0  0
 30 31  1  0  0  0  0
 30 38  1  0  0  0  0
 31 32  1  0  0  0  0
 31 39  1  0  0  0  0
 31 40  1  0  0  0  0
 32 33  1  0  0  0  0
 32 41  1  0  0  0  0
 32 42  1  0  0  0  0
 43 44  1  0  0  0  0
 43 45  1  0  0  0  0
 43 46  1  0  0  0  0
 46 47  1  0  0  0  0
 46 48  1  0  0  0  0
 46 49  1  0  0  0  0
 49 50  1  0  0  0  0
 49 51  1  0  0  0  0
 49 52  1  0  0  0  0
 52 53  1  0  0  0  0
M  END
$$$$
