p38a_2m
 OpenBabel02232411163D
Structure written by MMmdl.
 50 54  0  0  0  0  0  0  0  0999 V2000
   36.3780   36.0960   15.7280 C   0  0  0  0  0  0  0  0  0  0  0  0
   34.6640   34.9460   21.2500 C   0  0  0  0  0  0  0  0  0  0  0  0
   35.7580   35.5970   16.8700 C   0  0  0  0  0  0  0  0  0  0  0  0
   34.0760   38.9650   23.8860 C   0  0  0  0  0  0  0  0  0  0  0  0
   34.8510   37.8130   21.4980 C   0  0  0  0  0  0  0  0  0  0  0  0
   35.3210   37.1770   20.2950 C   0  0  0  0  0  0  0  0  0  0  0  0
   37.6670   36.6190   15.8950 C   0  0  0  0  0  0  0  0  0  0  0  0
   38.3400   36.6310   17.1190 C   0  0  0  0  0  0  0  0  0  0  0  0
   37.6810   36.1590   18.2600 C   0  0  0  0  0  0  0  0  0  0  0  0
   34.4250   37.0190   22.6040 C   0  0  0  0  0  0  0  0  0  0  0  0
   34.8100   39.2220   21.6710 C   0  0  0  0  0  0  0  0  0  0  0  0
   35.2620   35.8290   20.2090 C   0  0  0  0  0  0  0  0  0  0  0  0
   36.3900   35.6430   18.1300 C   0  0  0  0  0  0  0  0  0  0  0  0
   34.5530   35.0490   16.7990 F   0  0  0  0  0  0  0  0  0  0  0  0
   35.7010   35.0090   19.1710 O   0  0  0  0  0  0  0  0  0  0  0  0
   34.4420   39.8120   22.8200 N   0  0  0  0  0  0  0  0  0  0  0  0
   34.4150   33.7710   21.1110 O   0  0  0  0  0  0  0  0  0  0  0  0
   34.3750   35.6150   22.4940 N   0  0  0  0  0  0  0  0  0  0  0  0
   34.0380   37.5840   23.7890 N   0  0  0  0  0  0  0  0  0  0  0  0
   33.6970   39.5440   25.0730 N   0  0  0  0  0  0  0  0  0  0  0  0
   35.8780   36.1020   14.7570 H   0  0  0  0  0  0  0  0  0  0  0  0
   35.7220   37.8110   19.5010 H   0  0  0  0  0  0  0  0  0  0  0  0
   39.3550   37.0290   17.1990 H   0  0  0  0  0  0  0  0  0  0  0  0
   38.1740   36.2210   19.2330 H   0  0  0  0  0  0  0  0  0  0  0  0
   35.0900   39.8850   20.8350 H   0  0  0  0  0  0  0  0  0  0  0  0
   33.7650   40.5720   25.1920 H   0  0  0  0  0  0  0  0  0  0  0  0
   38.2610   37.1620   14.8350 F   0  0  0  0  0  0  0  0  0  0  0  0
   33.2920   40.4860   28.1600 C   0  0  0  0  0  0  0  0  0  0  0  0
   32.4860   39.5610   27.2400 C   0  0  0  0  0  0  0  0  0  0  0  0
   33.3570   38.7240   26.2800 C   0  0  0  0  0  0  0  0  0  0  0  0
   34.6200   38.1800   26.9800 C   0  0  0  0  0  0  0  0  0  0  0  0
   35.3160   39.2360   27.8400 C   0  0  0  0  0  0  0  0  0  0  0  0
   34.3960   39.8100   28.7980 O   0  0  0  0  0  0  0  0  0  0  0  0
   32.6780   40.8170   29.0290 H   0  0  0  0  0  0  0  0  0  0  0  0
   33.6950   41.3550   27.5960 H   0  0  0  0  0  0  0  0  0  0  0  0
   31.7670   40.1830   26.6500 H   0  0  0  0  0  0  0  0  0  0  0  0
   31.8900   38.8450   27.8600 H   0  0  0  0  0  0  0  0  0  0  0  0
   32.7420   37.8430   25.9280 H   0  0  0  0  0  0  0  0  0  0  0  0
   34.3050   37.3190   27.6230 H   0  0  0  0  0  0  0  0  0  0  0  0
   35.3390   37.7850   26.2230 H   0  0  0  0  0  0  0  0  0  0  0  0
   36.0880   38.7810   28.5020 H   0  0  0  0  0  0  0  0  0  0  0  0
   35.7360   40.0530   27.2120 H   0  0  0  0  0  0  0  0  0  0  0  0
   34.0150   34.8250   23.6910 C   0  0  0  0  0  0  0  0  0  0  0  0
   34.9340   34.8770   24.9090 C   0  0  0  0  0  0  0  0  0  0  0  0
   34.8430   33.6080   24.0870 C   0  0  0  0  0  0  0  0  0  0  0  0
   32.9210   34.8080   23.8560 H   0  0  0  0  0  0  0  0  0  0  0  0
   35.8510   35.4740   24.8720 H   0  0  0  0  0  0  0  0  0  0  0  0
   34.4620   34.9140   25.9030 H   0  0  0  0  0  0  0  0  0  0  0  0
   35.7140   33.2970   23.5030 H   0  0  0  0  0  0  0  0  0  0  0  0
   34.3010   32.7480   24.5110 H   0  0  0  0  0  0  0  0  0  0  0  0
  1  3  2  0  0  0  0
  1  7  1  0  0  0  0
  1 21  1  0  0  0  0
  2 12  1  0  0  0  0
  2 17  2  0  0  0  0
  2 18  1  0  0  0  0
  3 13  1  0  0  0  0
  3 14  1  0  0  0  0
  4 16  2  0  0  0  0
  4 19  1  0  0  0  0
  4 20  1  0  0  0  0
  5  6  1  0  0  0  0
  5 10  1  0  0  0  0
  5 11  2  0  0  0  0
  6 12  2  0  0  0  0
  6 22  1  0  0  0  0
  7  8  2  0  0  0  0
  7 27  1  0  0  0  0
  8  9  1  0  0  0  0
  8 23  1  0  0  0  0
  9 13  2  0  0  0  0
  9 24  1  0  0  0  0
 10 18  1  0  0  0  0
 10 19  2  0  0  0  0
 11 16  1  0  0  0  0
 11 25  1  0  0  0  0
 12 15  1  0  0  0  0
 13 15  1  0  0  0  0
 18 43  1  0  0  0  0
 20 26  1  0  0  0  0
 20 30  1  0  0  0  0
 28 29  1  0  0  0  0
 28 33  1  0  0  0  0
 28 34  1  0  0  0  0
 28 35  1  0  0  0  0
 29 30  1  0  0  0  0
 29 36  1  0  0  0  0
 29 37  1  0  0  0  0
 30 31  1  0  0  0  0
 30 38  1  0  0  0  0
 31 32  1  0  0  0  0
 31 39  1  0  0  0  0
 31 40  1  0  0  0  0
 32 33  1  0  0  0  0
 32 41  1  0  0  0  0
 32 42  1  0  0  0  0
 43 44  1  0  0  0  0
 43 45  1  0  0  0  0
 43 46  1  0  0  0  0
 44 45  1  0  0  0  0
 44 47  1  0  0  0  0
 44 48  1  0  0  0  0
 45 49  1  0  0  0  0
 45 50  1  0  0  0  0
M  END
$$$$
