18638-1
 OpenBabel02232411163D
Structure written by MMmdl.
 52 53  0  0  0  0  0  0  0  0999 V2000
   24.5920   10.6750   30.7170 C   0  0  0  0  0  0  0  0  0  0  0  0
   23.2740   11.0630   30.0820 C   0  0  0  0  0  0  0  0  0  0  0  0
   22.1990   11.1400   31.0940 O   0  0  0  0  0  0  0  0  0  0  0  0
   21.6010   10.0020   31.5140 C   0  0  0  0  0  0  0  0  0  0  0  0
   22.0580    8.8020   31.0830 N   0  0  0  0  0  0  0  0  0  0  0  0
   21.3500    7.6750   31.4710 C   0  0  0  0  0  0  0  0  0  0  0  0
   20.2190    7.7360   32.2780 C   0  0  0  0  0  0  0  0  0  0  0  0
   19.7480    8.9980   32.7280 C   0  0  0  0  0  0  0  0  0  0  0  0
   18.6030    9.0620   33.4820 N   0  0  0  0  0  0  0  0  0  0  0  0
   20.4640   10.1810   32.3590 C   0  0  0  0  0  0  0  0  0  0  0  0
   20.0860   11.4860   32.7400 C   0  0  0  0  0  0  0  0  0  0  0  0
   19.8250   12.5810   33.0200 N   0  0  0  0  0  0  0  0  0  0  0  0
   21.9000    6.4840   30.9340 N   0  0  0  0  0  0  0  0  0  0  0  0
   21.2330    5.2430   30.8610 C   0  0  0  0  0  0  0  0  0  0  0  0
   20.1610    5.0400   31.3920 O   0  0  0  0  0  0  0  0  0  0  0  0
   21.9250    4.2160   29.9790 C   0  0  0  0  0  0  0  0  0  0  0  0
   23.3010    3.8000   30.4070 C   0  0  0  0  0  0  0  0  0  0  0  0
   24.4450    4.5190   29.9550 C   0  0  0  0  0  0  0  0  0  0  0  0
   24.1180    5.6600   29.2280 O   0  0  0  0  0  0  0  0  0  0  0  0
   25.1470    6.6800   29.1000 C   0  0  0  0  0  0  0  0  0  0  0  0
   25.7360    4.0470   30.1760 C   0  0  0  0  0  0  0  0  0  0  0  0
   25.9450    2.8690   30.9150 C   0  0  0  0  0  0  0  0  0  0  0  0
   27.5860    2.2590   31.0450 S   0  0  0  0  0  0  0  0  0  0  0  0
   28.5570    3.3710   30.8990 O   0  0  0  0  0  0  0  0  0  0  0  0
   27.7610    1.5810   32.3510 O   0  0  0  0  0  0  0  0  0  0  0  0
   27.7180    1.1420   29.7250 C   0  0  0  0  0  0  0  0  0  0  0  0
   24.8230    2.2120   31.4430 C   0  0  0  0  0  0  0  0  0  0  0  0
   23.5070    2.6590   31.1680 C   0  0  0  0  0  0  0  0  0  0  0  0
   25.1010    1.1420   32.2580 O   0  0  0  0  0  0  0  0  0  0  0  0
   24.0260    0.2020   32.5430 C   0  0  0  0  0  0  0  0  0  0  0  0
   24.5640    9.6240   31.0910 H   0  0  0  0  0  0  0  0  0  0  0  0
   24.8470   11.3540   31.5570 H   0  0  0  0  0  0  0  0  0  0  0  0
   25.4020   10.7380   29.9480 H   0  0  0  0  0  0  0  0  0  0  0  0
   23.2670   12.1250   29.7330 H   0  0  0  0  0  0  0  0  0  0  0  0
   22.9710   10.3600   29.2740 H   0  0  0  0  0  0  0  0  0  0  0  0
   19.6730    6.8310   32.5550 H   0  0  0  0  0  0  0  0  0  0  0  0
   18.0960    8.2000   33.7580 H   0  0  0  0  0  0  0  0  0  0  0  0
   18.2140    9.9550   33.7840 H   0  0  0  0  0  0  0  0  0  0  0  0
   22.8020    6.5890   30.4130 H   0  0  0  0  0  0  0  0  0  0  0  0
   21.2740    3.3040   29.9240 H   0  0  0  0  0  0  0  0  0  0  0  0
   21.9930    4.6650   28.9470 H   0  0  0  0  0  0  0  0  0  0  0  0
   24.5510    7.5560   28.7530 H   0  0  0  0  0  0  0  0  0  0  0  0
   25.6250    6.8800   30.0820 H   0  0  0  0  0  0  0  0  0  0  0  0
   25.8820    6.3540   28.3340 H   0  0  0  0  0  0  0  0  0  0  0  0
   26.5880    4.5880   29.7470 H   0  0  0  0  0  0  0  0  0  0  0  0
   27.6080    1.6520   28.7310 H   0  0  0  0  0  0  0  0  0  0  0  0
   28.7060    0.6140   29.7020 H   0  0  0  0  0  0  0  0  0  0  0  0
   26.9280    0.3460   29.7550 H   0  0  0  0  0  0  0  0  0  0  0  0
   22.6500    2.0940   31.5390 H   0  0  0  0  0  0  0  0  0  0  0  0
   23.6130   -0.1930   31.5910 H   0  0  0  0  0  0  0  0  0  0  0  0
   23.2530    0.6770   33.1830 H   0  0  0  0  0  0  0  0  0  0  0  0
   24.5700   -0.5980   33.1010 H   0  0  0  0  0  0  0  0  0  0  0  0
  1  2  1  0  0  0  0
  1 31  1  0  0  0  0
  1 32  1  0  0  0  0
  1 33  1  0  0  0  0
  2  3  1  0  0  0  0
  2 34  1  0  0  0  0
  2 35  1  0  0  0  0
  3  4  1  0  0  0  0
  4 10  2  0  0  0  0
  4  5  1  0  0  0  0
  5  6  2  0  0  0  0
  6  7  1  0  0  0  0
  6 13  1  0  0  0  0
  7  8  2  0  0  0  0
  7 36  1  0  0  0  0
  8  9  1  0  0  0  0
  8 10  1  0  0  0  0
  9 37  1  0  0  0  0
  9 38  1  0  0  0  0
 10 11  1  0  0  0  0
 11 12  3  0  0  0  0
 13 14  1  0  0  0  0
 13 39  1  0  0  0  0
 14 15  2  0  0  0  0
 14 16  1  0  0  0  0
 16 17  1  0  0  0  0
 16 40  1  0  0  0  0
 16 41  1  0  0  0  0
 17 28  2  0  0  0  0
 17 18  1  0  0  0  0
 18 19  1  0  0  0  0
 18 21  2  0  0  0  0
 19 20  1  0  0  0  0
 20 42  1  0  0  0  0
 20 43  1  0  0  0  0
 20 44  1  0  0  0  0
 21 22  1  0  0  0  0
 21 45  1  0  0  0  0
 22 23  1  0  0  0  0
 22 27  2  0  0  0  0
 23 24  2  0  0  0  0
 23 25  2  0  0  0  0
 23 26  1  0  0  0  0
 26 46  1  0  0  0  0
 26 47  1  0  0  0  0
 26 48  1  0  0  0  0
 27 28  1  0  0  0  0
 27 29  1  0  0  0  0
 28 49  1  0  0  0  0
 29 30  1  0  0  0  0
 30 50  1  0  0  0  0
 30 51  1  0  0  0  0
 30 52  1  0  0  0  0
M  END
$$$$
