p38a_2s
 OpenBabel02232411163D
Structure written by MMmdl.
 54 57  0  0  1  0  0  0  0  0999 V2000
   38.2460   36.4890   17.2410 C   0  0  0  0  0  0  0  0  0  0  0  0
   34.6270   35.1370   21.4250 C   0  0  0  0  0  0  0  0  0  0  0  0
   37.4720   36.0660   18.3190 C   0  0  0  0  0  0  0  0  0  0  0  0
   34.1650   39.2330   23.9530 C   0  0  0  0  0  0  0  0  0  0  0  0
   34.7310   38.0020   21.5480 C   0  0  0  0  0  0  0  0  0  0  0  0
   35.0730   37.3390   20.3190 C   0  0  0  0  0  0  0  0  0  0  0  0
   37.5850   36.6190   16.0120 C   0  0  0  0  0  0  0  0  0  0  0  0
   36.2310   36.3220   15.8310 C   0  0  0  0  0  0  0  0  0  0  0  0
   35.4780   35.8920   16.9280 C   0  0  0  0  0  0  0  0  0  0  0  0
   34.4600   37.2440   22.7220 C   0  0  0  0  0  0  0  0  0  0  0  0
   34.6630   39.4190   21.6680 C   0  0  0  0  0  0  0  0  0  0  0  0
   35.0600   35.9870   20.2870 C   0  0  0  0  0  0  0  0  0  0  0  0
   36.1040   35.7550   18.1710 C   0  0  0  0  0  0  0  0  0  0  0  0
   38.0240   35.9510   19.5200 F   0  0  0  0  0  0  0  0  0  0  0  0
   35.3860   35.1570   19.2160 O   0  0  0  0  0  0  0  0  0  0  0  0
   34.3940   40.0440   22.8210 N   0  0  0  0  0  0  0  0  0  0  0  0
   34.4180   33.9410   21.3660 O   0  0  0  0  0  0  0  0  0  0  0  0
   34.4360   35.8350   22.6700 N   0  0  0  0  0  0  0  0  0  0  0  0
   34.1930   37.8510   23.9230 N   0  0  0  0  0  0  0  0  0  0  0  0
   33.8170   39.8650   25.1210 N   0  0  0  0  0  0  0  0  0  0  0  0
   39.3040   36.7430   17.3550 H   0  0  0  0  0  0  0  0  0  0  0  0
   35.3400   37.9520   19.4550 H   0  0  0  0  0  0  0  0  0  0  0  0
   35.7510   36.4350   14.8550 H   0  0  0  0  0  0  0  0  0  0  0  0
   34.4100   35.6800   16.8100 H   0  0  0  0  0  0  0  0  0  0  0  0
   34.8320   40.0490   20.7780 H   0  0  0  0  0  0  0  0  0  0  0  0
   33.8920   40.9020   25.1750 H   0  0  0  0  0  0  0  0  0  0  0  0
   38.2750   37.0870   14.9750 F   0  0  0  0  0  0  0  0  0  0  0  0
   32.7430   39.3610   28.7510 C   0  0  0  0  0  0  0  0  0  0  0  0
   32.7950   39.9920   27.3540 C   0  0  0  0  0  0  0  0  0  0  0  0
   33.7200   39.1640   26.4390 C   0  0  0  0  0  0  0  0  0  0  0  0
   35.1110   38.9990   27.0880 C   0  0  0  0  0  0  0  0  0  0  0  0
   34.9490   38.4070   28.4940 C   0  0  0  0  0  0  0  0  0  0  0  0
   34.0660   39.2060   29.3140 O   0  0  0  0  0  0  0  0  0  0  0  0
   32.2400   38.3670   28.7250 H   0  0  0  0  0  0  0  0  0  0  0  0
   32.2550   40.0490   29.4810 H   0  0  0  0  0  0  0  0  0  0  0  0
   33.1800   41.0370   27.4400 H   0  0  0  0  0  0  0  0  0  0  0  0
   31.7690   40.0320   26.9180 H   0  0  0  0  0  0  0  0  0  0  0  0
   33.2710   38.1470   26.2770 H   0  0  0  0  0  0  0  0  0  0  0  0
   35.7380   38.3130   26.4700 H   0  0  0  0  0  0  0  0  0  0  0  0
   35.6210   39.9890   27.1480 H   0  0  0  0  0  0  0  0  0  0  0  0
   34.5530   37.3660   28.4430 H   0  0  0  0  0  0  0  0  0  0  0  0
   35.9050   38.4540   29.0640 H   0  0  0  0  0  0  0  0  0  0  0  0
   34.2190   35.0460   23.9240 C   0  0  0  0  0  0  0  0  0  0  0  0
   34.9030   34.1510   23.8980 H   0  0  0  0  0  0  0  0  0  0  0  0
   34.5250   35.6770   24.8100 H   0  0  0  0  0  0  0  0  0  0  0  0
   32.7660   34.5570   24.1480 C   0  0  2  0  0  0  0  0  0  0  0  0
   32.4990   33.3440   23.4390 O   0  0  0  0  0  0  0  0  0  0  0  0
   32.9360   33.3670   22.5480 H   0  0  0  0  0  0  0  0  0  0  0  0
   31.6580   35.5690   23.7720 C   0  0  0  0  0  0  0  0  0  0  0  0
   30.6560   35.0750   23.8040 H   0  0  0  0  0  0  0  0  0  0  0  0
   31.8470   36.0370   22.7860 H   0  0  0  0  0  0  0  0  0  0  0  0
   32.6600   34.2560   25.2250 H   0  0  0  0  0  0  0  0  0  0  0  0
   31.5490   36.5980   24.7600 O   0  0  0  0  0  0  0  0  0  0  0  0
   32.3820   37.1280   24.7640 H   0  0  0  0  0  0  0  0  0  0  0  0
  1  3  2  0  0  0  0
  1  7  1  0  0  0  0
  1 21  1  0  0  0  0
  2 12  1  0  0  0  0
  2 17  2  0  0  0  0
  2 18  1  0  0  0  0
  3 13  1  0  0  0  0
  3 14  1  0  0  0  0
  4 16  2  0  0  0  0
  4 19  1  0  0  0  0
  4 20  1  0  0  0  0
  5  6  1  0  0  0  0
  5 10  1  0  0  0  0
  5 11  2  0  0  0  0
  6 12  2  0  0  0  0
  6 22  1  0  0  0  0
  7  8  2  0  0  0  0
  7 27  1  0  0  0  0
  8  9  1  0  0  0  0
  8 23  1  0  0  0  0
  9 13  2  0  0  0  0
  9 24  1  0  0  0  0
 10 18  1  0  0  0  0
 10 19  2  0  0  0  0
 11 16  1  0  0  0  0
 11 25  1  0  0  0  0
 12 15  1  0  0  0  0
 13 15  1  0  0  0  0
 18 43  1  0  0  0  0
 20 26  1  0  0  0  0
 20 30  1  0  0  0  0
 28 29  1  0  0  0  0
 28 33  1  0  0  0  0
 28 34  1  0  0  0  0
 28 35  1  0  0  0  0
 29 30  1  0  0  0  0
 29 36  1  0  0  0  0
 29 37  1  0  0  0  0
 30 31  1  0  0  0  0
 30 38  1  0  0  0  0
 31 32  1  0  0  0  0
 31 39  1  0  0  0  0
 31 40  1  0  0  0  0
 32 33  1  0  0  0  0
 32 41  1  0  0  0  0
 32 42  1  0  0  0  0
 43 44  1  0  0  0  0
 43 45  1  0  0  0  0
 43 46  1  0  0  0  0
 46 47  1  0  0  0  0
 46 49  1  0  0  0  0
 46 52  1  1  0  0  0
 47 48  1  0  0  0  0
 49 50  1  0  0  0  0
 49 51  1  0  0  0  0
 49 53  1  0  0  0  0
 53 54  1  0  0  0  0
M  END
$$$$
