p38a_3flw
 OpenBabel02232411163D
Structure written by MMmdl.
 49 51  0  0  0  0  0  0  0  0999 V2000
   36.3630   36.0130   15.8200 C   0  0  0  0  0  0  0  0  0  0  0  0
   37.6510   36.5290   16.0090 C   0  0  0  0  0  0  0  0  0  0  0  0
   31.7010   38.5470   25.7320 C   0  0  0  0  0  0  0  0  0  0  0  0
   30.8590   39.0250   24.5430 C   0  0  0  0  0  0  0  0  0  0  0  0
   33.7920   38.8540   27.1380 C   0  0  0  0  0  0  0  0  0  0  0  0
   33.6260   35.0540   23.7060 C   0  0  0  0  0  0  0  0  0  0  0  0
   34.5050   34.9950   16.8590 F   0  0  0  0  0  0  0  0  0  0  0  0
   35.7150   35.5280   16.9520 C   0  0  0  0  0  0  0  0  0  0  0  0
   38.2700   37.0640   14.9580 F   0  0  0  0  0  0  0  0  0  0  0  0
   38.3010   36.5410   17.2460 C   0  0  0  0  0  0  0  0  0  0  0  0
   37.6170   36.0800   18.3760 C   0  0  0  0  0  0  0  0  0  0  0  0
   36.3220   35.5740   18.2240 C   0  0  0  0  0  0  0  0  0  0  0  0
   35.6000   34.9720   19.2640 O   0  0  0  0  0  0  0  0  0  0  0  0
   35.1840   35.8340   20.2780 C   0  0  0  0  0  0  0  0  0  0  0  0
   35.2850   37.1830   20.3050 C   0  0  0  0  0  0  0  0  0  0  0  0
   34.8260   37.8880   21.4680 C   0  0  0  0  0  0  0  0  0  0  0  0
   34.8700   39.3060   21.5710 C   0  0  0  0  0  0  0  0  0  0  0  0
   34.4910   39.9670   22.6700 N   0  0  0  0  0  0  0  0  0  0  0  0
   34.5480   35.0280   21.3540 C   0  0  0  0  0  0  0  0  0  0  0  0
   34.3200   33.8390   21.2970 O   0  0  0  0  0  0  0  0  0  0  0  0
   34.1900   35.7750   22.5300 N   0  0  0  0  0  0  0  0  0  0  0  0
   34.3160   37.1740   22.5910 C   0  0  0  0  0  0  0  0  0  0  0  0
   33.9250   37.8170   23.7410 N   0  0  0  0  0  0  0  0  0  0  0  0
   34.0210   39.1920   23.7590 C   0  0  0  0  0  0  0  0  0  0  0  0
   33.7040   39.9140   24.8820 N   0  0  0  0  0  0  0  0  0  0  0  0
   32.8870   39.4750   26.0550 C   0  0  0  0  0  0  0  0  0  0  0  0
   34.9900   39.7320   27.5300 C   0  0  0  0  0  0  0  0  0  0  0  0
   34.6250   41.1040   27.7760 O   0  0  0  0  0  0  0  0  0  0  0  0
   30.8170   40.4580   24.4850 O   0  0  0  0  0  0  0  0  0  0  0  0
   35.8820   36.0160   14.8380 H   0  0  0  0  0  0  0  0  0  0  0  0
   31.0610   38.4850   26.6480 H   0  0  0  0  0  0  0  0  0  0  0  0
   32.0670   37.5090   25.5150 H   0  0  0  0  0  0  0  0  0  0  0  0
   31.3450   38.7640   23.5760 H   0  0  0  0  0  0  0  0  0  0  0  0
   29.8280   38.6160   24.6050 H   0  0  0  0  0  0  0  0  0  0  0  0
   33.1590   38.6560   28.0400 H   0  0  0  0  0  0  0  0  0  0  0  0
   34.1810   37.8640   26.7850 H   0  0  0  0  0  0  0  0  0  0  0  0
   32.5500   35.3430   23.8540 H   0  0  0  0  0  0  0  0  0  0  0  0
   33.6950   33.9460   23.5550 H   0  0  0  0  0  0  0  0  0  0  0  0
   34.1940   35.3320   24.6360 H   0  0  0  0  0  0  0  0  0  0  0  0
   39.3180   36.9330   17.3400 H   0  0  0  0  0  0  0  0  0  0  0  0
   38.0910   36.1410   19.3590 H   0  0  0  0  0  0  0  0  0  0  0  0
   35.7130   37.7660   19.4860 H   0  0  0  0  0  0  0  0  0  0  0  0
   35.2160   39.9020   20.7120 H   0  0  0  0  0  0  0  0  0  0  0  0
   33.7500   40.9500   24.8180 H   0  0  0  0  0  0  0  0  0  0  0  0
   32.4490   40.4400   26.4560 H   0  0  0  0  0  0  0  0  0  0  0  0
   35.4090   39.4000   28.5090 H   0  0  0  0  0  0  0  0  0  0  0  0
   35.7600   39.7210   26.7270 H   0  0  0  0  0  0  0  0  0  0  0  0
   34.2890   41.4860   26.9110 H   0  0  0  0  0  0  0  0  0  0  0  0
   30.0380   40.8030   25.0080 H   0  0  0  0  0  0  0  0  0  0  0  0
  1  2  2  0  0  0  0
  1  8  1  0  0  0  0
  1 30  1  0  0  0  0
  2  9  1  0  0  0  0
  2 10  1  0  0  0  0
  3  4  1  0  0  0  0
  3 26  1  0  0  0  0
  3 31  1  0  0  0  0
  3 32  1  0  0  0  0
  4 29  1  0  0  0  0
  4 33  1  0  0  0  0
  4 34  1  0  0  0  0
  5 26  1  0  0  0  0
  5 27  1  0  0  0  0
  5 35  1  0  0  0  0
  5 36  1  0  0  0  0
  6 21  1  0  0  0  0
  6 37  1  0  0  0  0
  6 38  1  0  0  0  0
  6 39  1  0  0  0  0
  7  8  1  0  0  0  0
  8 12  2  0  0  0  0
 10 11  2  0  0  0  0
 10 40  1  0  0  0  0
 11 12  1  0  0  0  0
 11 41  1  0  0  0  0
 12 13  1  0  0  0  0
 13 14  1  0  0  0  0
 14 15  2  0  0  0  0
 14 19  1  0  0  0  0
 15 16  1  0  0  0  0
 15 42  1  0  0  0  0
 16 17  2  0  0  0  0
 16 22  1  0  0  0  0
 17 18  1  0  0  0  0
 17 43  1  0  0  0  0
 18 24  2  0  0  0  0
 19 20  2  0  0  0  0
 19 21  1  0  0  0  0
 21 22  1  0  0  0  0
 22 23  2  0  0  0  0
 23 24  1  0  0  0  0
 24 25  1  0  0  0  0
 25 26  1  0  0  0  0
 25 44  1  0  0  0  0
 26 45  1  0  0  0  0
 27 28  1  0  0  0  0
 27 46  1  0  0  0  0
 27 47  1  0  0  0  0
 28 48  1  0  0  0  0
 29 49  1  0  0  0  0
M  END
$$$$
