23472
                    3D
 Schrodinger Suite 2022-3.
 42 44  0  0  1  0  0  0  0  0999 V2000
   43.6750   13.7860   16.7170 S   0  0  0  0  0  0  0  0  0  0  0  0
   43.5600   15.1410   15.6150 C   0  0  0  0  0  0  0  0  0  0  0  0
   42.6570   14.8320   14.6300 C   0  0  0  0  0  0  0  0  0  0  0  0
   42.0260   13.5400   14.8050 C   0  0  0  0  0  0  0  0  0  0  0  0
   42.4600   12.8320   15.8960 C   0  0  0  0  0  0  0  0  0  0  0  0
   44.3660   16.4240   15.8670 C   0  0  0  0  0  0  0  0  0  0  0  0
   45.2200   16.3430   16.7760 O   0  0  0  0  0  0  0  0  0  0  0  0
   44.1210   17.4250   15.1930 O   0  5  0  0  0  0  0  0  0  0  0  0
   42.0790   11.5050   16.3330 C   0  0  0  0  0  0  0  0  0  0  0  0
   40.7550   11.0590   16.1690 C   0  0  0  0  0  0  0  0  0  0  0  0
   40.4020    9.7190   16.4200 C   0  0  0  0  0  0  0  0  0  0  0  0
   41.3450    8.8350   16.9580 C   0  0  0  0  0  0  0  0  0  0  0  0
   42.6430    9.3080   17.2070 C   0  0  0  0  0  0  0  0  0  0  0  0
   43.0220   10.6070   16.8850 C   0  0  0  0  0  0  0  0  0  0  0  0
   40.7180   12.8940   13.5820 Br  0  0  0  0  0  0  0  0  0  0  0  0
   42.4880   15.6060   13.5280 O   0  0  0  0  0  0  0  0  0  0  0  0
   41.1500   16.1830   13.3890 C   0  0  0  0  0  0  0  0  0  0  0  0
   41.4420   17.5990   12.8010 C   0  0  0  0  0  0  0  0  0  0  0  0
   40.4510   18.3610   12.7770 O   0  5  0  0  0  0  0  0  0  0  0  0
   42.5730   17.8620   12.3790 O   0  0  0  0  0  0  0  0  0  0  0  0
   39.0390    9.3170   16.1730 N   0  0  0  0  0  0  0  0  0  0  0  0
   38.5790    7.8020   15.4900 S   0  0  0  0  0  0  0  0  0  0  0  0
   39.9720   11.7530   15.8510 H   0  0  0  0  0  0  0  0  0  0  0  0
   41.0980    7.8080   17.2100 H   0  0  0  0  0  0  0  0  0  0  0  0
   43.3650    8.6250   17.6610 H   0  0  0  0  0  0  0  0  0  0  0  0
   44.0550   10.9130   17.0640 H   0  0  0  0  0  0  0  0  0  0  0  0
   40.6170   16.2310   14.3620 H   0  0  0  0  0  0  0  0  0  0  0  0
   40.5950   15.5480   12.6700 H   0  0  0  0  0  0  0  0  0  0  0  0
   38.4460   10.1130   15.8360 H   0  0  0  0  0  0  0  0  0  0  0  0
   38.9850    4.5200   18.5430 C   0  0  0  0  0  0  0  0  0  0  0  0
   38.5260    5.7690   18.9660 C   0  0  0  0  0  0  0  0  0  0  0  0
   38.4540    6.7990   18.0220 C   0  0  0  0  0  0  0  0  0  0  0  0
   38.8290    6.5690   16.6900 C   0  0  0  0  0  0  0  0  0  0  0  0
   39.3140    5.3120   16.3040 C   0  0  0  0  0  0  0  0  0  0  0  0
   39.3820    4.2640   17.2280 C   0  0  0  0  0  0  0  0  0  0  0  0
   39.0410    3.5250   19.4290 F   0  0  0  0  0  0  0  0  0  0  0  0
   38.2310    5.9480   20.0040 H   0  0  0  0  0  0  0  0  0  0  0  0
   38.1020    7.7860   18.3550 H   0  0  0  0  0  0  0  0  0  0  0  0
   39.6540    5.1130   15.2770 H   0  0  0  0  0  0  0  0  0  0  0  0
   39.7440    3.2790   16.9220 H   0  0  0  0  0  0  0  0  0  0  0  0
   39.3740    7.5510   14.2910 O   0  0  0  0  0  0  0  0  0  0  0  0
   37.1280    7.9070   15.2460 O   0  0  0  0  0  0  0  0  0  0  0  0
  1  2  1  0  0  0  0
  1  5  1  0  0  0  0
  2  3  2  0  0  0  0
  2  6  1  0  0  0  0
  3  4  1  0  0  0  0
  3 16  1  0  0  0  0
  4  5  2  0  0  0  0
  4 15  1  0  0  0  0
  5  9  1  0  0  0  0
  6  7  2  0  0  0  0
  6  8  1  0  0  0  0
  9 10  1  0  0  0  0
  9 14  2  0  0  0  0
 10 11  2  0  0  0  0
 10 23  1  0  0  0  0
 11 12  1  0  0  0  0
 11 21  1  0  0  0  0
 12 13  2  0  0  0  0
 12 24  1  0  0  0  0
 13 14  1  0  0  0  0
 13 25  1  0  0  0  0
 14 26  1  0  0  0  0
 16 17  1  0  0  0  0
 17 18  1  0  0  0  0
 17 27  1  0  0  0  0
 17 28  1  0  0  0  0
 18 19  1  0  0  0  0
 18 20  2  0  0  0  0
 21 22  1  0  0  0  0
 21 29  1  0  0  0  0
 22 33  1  0  0  0  0
 22 41  2  0  0  0  0
 22 42  2  0  0  0  0
 30 31  2  0  0  0  0
 30 35  1  0  0  0  0
 30 36  1  0  0  0  0
 31 32  1  0  0  0  0
 31 37  1  0  0  0  0
 32 33  2  0  0  0  0
 32 38  1  0  0  0  0
 33 34  1  0  0  0  0
 34 35  2  0  0  0  0
 34 39  1  0  0  0  0
 35 40  1  0  0  0  0
M  CHG  2   8  -1  19  -1
M  END
$$$$
