p38a_2o
 OpenBabel02232411163D
Structure written by MMmdl.
 55 58  0  0  0  0  0  0  0  0999 V2000
   36.3120   35.8200   16.0810 C   0  0  0  0  0  0  0  0  0  0  0  0
   34.4870   35.0250   21.7100 C   0  0  0  0  0  0  0  0  0  0  0  0
   35.5350   35.4410   17.1710 C   0  0  0  0  0  0  0  0  0  0  0  0
   34.2190   39.1380   24.2540 C   0  0  0  0  0  0  0  0  0  0  0  0
   34.7210   37.8870   21.8470 C   0  0  0  0  0  0  0  0  0  0  0  0
   35.0170   37.2170   20.6100 C   0  0  0  0  0  0  0  0  0  0  0  0
   37.6010   36.2910   16.3660 C   0  0  0  0  0  0  0  0  0  0  0  0
   38.1320   36.3500   17.6570 C   0  0  0  0  0  0  0  0  0  0  0  0
   37.3230   35.9840   18.7380 C   0  0  0  0  0  0  0  0  0  0  0  0
   34.4330   37.1360   23.0250 C   0  0  0  0  0  0  0  0  0  0  0  0
   34.7120   39.3040   21.9670 C   0  0  0  0  0  0  0  0  0  0  0  0
   34.9310   35.8680   20.5690 C   0  0  0  0  0  0  0  0  0  0  0  0
   36.0220   35.5390   18.4920 C   0  0  0  0  0  0  0  0  0  0  0  0
   34.3120   34.9580   16.9920 F   0  0  0  0  0  0  0  0  0  0  0  0
   35.1550   35.0380   19.4700 O   0  0  0  0  0  0  0  0  0  0  0  0
   34.4650   39.9410   23.1200 N   0  0  0  0  0  0  0  0  0  0  0  0
   34.2360   33.8440   21.6510 O   0  0  0  0  0  0  0  0  0  0  0  0
   34.3670   35.7310   22.9690 N   0  0  0  0  0  0  0  0  0  0  0  0
   34.2000   37.7550   24.2260 N   0  0  0  0  0  0  0  0  0  0  0  0
   33.9460   39.7800   25.4360 N   0  0  0  0  0  0  0  0  0  0  0  0
   35.9310   35.7840   15.0560 H   0  0  0  0  0  0  0  0  0  0  0  0
   35.3130   37.8270   19.7510 H   0  0  0  0  0  0  0  0  0  0  0  0
   39.1530   36.7070   17.8230 H   0  0  0  0  0  0  0  0  0  0  0  0
   37.7030   36.0740   19.7580 H   0  0  0  0  0  0  0  0  0  0  0  0
   34.9100   39.9290   21.0780 H   0  0  0  0  0  0  0  0  0  0  0  0
   33.9710   40.8170   25.4750 H   0  0  0  0  0  0  0  0  0  0  0  0
   38.3420   36.7370   15.3530 F   0  0  0  0  0  0  0  0  0  0  0  0
   33.6910   40.9420   28.4510 C   0  0  0  0  0  0  0  0  0  0  0  0
   32.8660   39.9140   27.6670 C   0  0  0  0  0  0  0  0  0  0  0  0
   33.7070   39.0390   26.7150 C   0  0  0  0  0  0  0  0  0  0  0  0
   35.0330   38.5960   27.3670 C   0  0  0  0  0  0  0  0  0  0  0  0
   35.7370   39.7360   28.1050 C   0  0  0  0  0  0  0  0  0  0  0  0
   34.8560   40.3580   29.0700 O   0  0  0  0  0  0  0  0  0  0  0  0
   33.1190   41.3250   29.3270 H   0  0  0  0  0  0  0  0  0  0  0  0
   34.0240   41.7710   27.7890 H   0  0  0  0  0  0  0  0  0  0  0  0
   32.0790   40.4540   27.0840 H   0  0  0  0  0  0  0  0  0  0  0  0
   32.3510   39.2240   28.3830 H   0  0  0  0  0  0  0  0  0  0  0  0
   33.1110   38.1140   26.4660 H   0  0  0  0  0  0  0  0  0  0  0  0
   34.7970   37.7670   28.0830 H   0  0  0  0  0  0  0  0  0  0  0  0
   35.7140   38.1740   26.5890 H   0  0  0  0  0  0  0  0  0  0  0  0
   36.5600   39.3540   28.7500 H   0  0  0  0  0  0  0  0  0  0  0  0
   36.0890   40.5140   27.3910 H   0  0  0  0  0  0  0  0  0  0  0  0
   34.1750   34.9360   24.2320 C   0  0  0  0  0  0  0  0  0  0  0  0
   34.4560   33.8710   23.9960 H   0  0  0  0  0  0  0  0  0  0  0  0
   34.8960   35.3390   25.0050 H   0  0  0  0  0  0  0  0  0  0  0  0
   32.7460   35.0300   24.7760 C   0  0  0  0  0  0  0  0  0  0  0  0
   32.6820   35.9660   25.4080 H   0  0  0  0  0  0  0  0  0  0  0  0
   32.0210   35.1970   23.9360 H   0  0  0  0  0  0  0  0  0  0  0  0
   32.2200   33.6430   25.7380 S   0  0  0  0  0  0  0  0  0  0  0  0
   31.9400   32.5090   24.8290 O   0  0  0  0  0  0  0  0  0  0  0  0
   30.9960   33.9940   26.4970 O   0  0  0  0  0  0  0  0  0  0  0  0
   33.5160   33.2770   26.8300 C   0  0  0  0  0  0  0  0  0  0  0  0
   33.9580   34.2030   27.2940 H   0  0  0  0  0  0  0  0  0  0  0  0
   33.1860   32.6340   27.6860 H   0  0  0  0  0  0  0  0  0  0  0  0
   34.3740   32.7440   26.3460 H   0  0  0  0  0  0  0  0  0  0  0  0
  1  3  2  0  0  0  0
  1  7  1  0  0  0  0
  1 21  1  0  0  0  0
  2 12  1  0  0  0  0
  2 17  2  0  0  0  0
  2 18  1  0  0  0  0
  3 13  1  0  0  0  0
  3 14  1  0  0  0  0
  4 16  2  0  0  0  0
  4 19  1  0  0  0  0
  4 20  1  0  0  0  0
  5  6  1  0  0  0  0
  5 10  1  0  0  0  0
  5 11  2  0  0  0  0
  6 12  2  0  0  0  0
  6 22  1  0  0  0  0
  7  8  2  0  0  0  0
  7 27  1  0  0  0  0
  8  9  1  0  0  0  0
  8 23  1  0  0  0  0
  9 13  2  0  0  0  0
  9 24  1  0  0  0  0
 10 18  1  0  0  0  0
 10 19  2  0  0  0  0
 11 16  1  0  0  0  0
 11 25  1  0  0  0  0
 12 15  1  0  0  0  0
 13 15  1  0  0  0  0
 18 43  1  0  0  0  0
 20 26  1  0  0  0  0
 20 30  1  0  0  0  0
 28 29  1  0  0  0  0
 28 33  1  0  0  0  0
 28 34  1  0  0  0  0
 28 35  1  0  0  0  0
 29 30  1  0  0  0  0
 29 36  1  0  0  0  0
 29 37  1  0  0  0  0
 30 31  1  0  0  0  0
 30 38  1  0  0  0  0
 31 32  1  0  0  0  0
 31 39  1  0  0  0  0
 31 40  1  0  0  0  0
 32 33  1  0  0  0  0
 32 41  1  0  0  0  0
 32 42  1  0  0  0  0
 43 44  1  0  0  0  0
 43 45  1  0  0  0  0
 43 46  1  0  0  0  0
 46 47  1  0  0  0  0
 46 48  1  0  0  0  0
 46 49  1  0  0  0  0
 49 50  2  0  0  0  0
 49 51  2  0  0  0  0
 49 52  1  0  0  0  0
 52 53  1  0  0  0  0
 52 54  1  0  0  0  0
 52 55  1  0  0  0  0
M  END
$$$$
