p38a_3fln
 OpenBabel02232411163D
Structure written by MMmdl.
 46 49  0  0  0  0  0  0  0  0999 V2000
   32.0820   39.5840   27.0140 C   0  0  0  0  0  0  0  0  0  0  0  0
   33.0810   40.1950   28.0060 C   0  0  0  0  0  0  0  0  0  0  0  0
   34.6430   38.3870   27.7120 C   0  0  0  0  0  0  0  0  0  0  0  0
   33.7100   37.6530   26.7490 C   0  0  0  0  0  0  0  0  0  0  0  0
   36.4120   36.1350   15.6770 C   0  0  0  0  0  0  0  0  0  0  0  0
   33.8970   39.1960   28.6510 O   0  0  0  0  0  0  0  0  0  0  0  0
   34.4850   34.8920   21.0400 C   0  0  0  0  0  0  0  0  0  0  0  0
   35.8010   35.6070   16.8090 C   0  0  0  0  0  0  0  0  0  0  0  0
   33.8240   38.8440   23.7550 C   0  0  0  0  0  0  0  0  0  0  0  0
   32.7430   38.6080   26.0190 C   0  0  0  0  0  0  0  0  0  0  0  0
   34.7710   37.7380   21.4090 C   0  0  0  0  0  0  0  0  0  0  0  0
   35.3440   37.1160   20.2460 C   0  0  0  0  0  0  0  0  0  0  0  0
   37.6980   36.6620   15.8510 C   0  0  0  0  0  0  0  0  0  0  0  0
   38.3750   36.6560   17.0740 C   0  0  0  0  0  0  0  0  0  0  0  0
   37.7230   36.1560   18.2070 C   0  0  0  0  0  0  0  0  0  0  0  0
   34.1210   36.9410   22.3990 C   0  0  0  0  0  0  0  0  0  0  0  0
   34.8400   39.1350   21.6590 C   0  0  0  0  0  0  0  0  0  0  0  0
   35.2330   35.7750   20.1050 C   0  0  0  0  0  0  0  0  0  0  0  0
   36.4360   35.6300   18.0680 C   0  0  0  0  0  0  0  0  0  0  0  0
   33.2460   34.7620   23.2360 C   0  0  0  0  0  0  0  0  0  0  0  0
   34.5990   35.0520   16.7300 F   0  0  0  0  0  0  0  0  0  0  0  0
   38.2860   37.2270   14.7990 F   0  0  0  0  0  0  0  0  0  0  0  0
   35.7630   34.9670   19.1010 O   0  0  0  0  0  0  0  0  0  0  0  0
   34.3940   39.7020   22.7900 N   0  0  0  0  0  0  0  0  0  0  0  0
   34.3000   33.7040   20.8820 O   0  0  0  0  0  0  0  0  0  0  0  0
   33.9620   35.5580   22.2010 N   0  0  0  0  0  0  0  0  0  0  0  0
   33.6440   37.4850   23.5630 N   0  0  0  0  0  0  0  0  0  0  0  0
   33.4250   39.4000   24.9440 N   0  0  0  0  0  0  0  0  0  0  0  0
   31.2960   39.0180   27.5720 H   0  0  0  0  0  0  0  0  0  0  0  0
   31.5820   40.4090   26.4520 H   0  0  0  0  0  0  0  0  0  0  0  0
   33.7500   40.9230   27.4930 H   0  0  0  0  0  0  0  0  0  0  0  0
   32.5530   40.6670   28.8660 H   0  0  0  0  0  0  0  0  0  0  0  0
   35.1690   37.6730   28.3870 H   0  0  0  0  0  0  0  0  0  0  0  0
   35.3570   39.0410   27.1620 H   0  0  0  0  0  0  0  0  0  0  0  0
   34.3170   37.0730   26.0110 H   0  0  0  0  0  0  0  0  0  0  0  0
   33.0860   36.9130   27.3140 H   0  0  0  0  0  0  0  0  0  0  0  0
   35.9090   36.1580   14.7090 H   0  0  0  0  0  0  0  0  0  0  0  0
   31.9340   37.9920   25.5260 H   0  0  0  0  0  0  0  0  0  0  0  0
   35.8620   37.7530   19.5260 H   0  0  0  0  0  0  0  0  0  0  0  0
   39.3850   37.0620   17.1610 H   0  0  0  0  0  0  0  0  0  0  0  0
   38.2170   36.2040   19.1800 H   0  0  0  0  0  0  0  0  0  0  0  0
   35.2760   39.8060   20.9010 H   0  0  0  0  0  0  0  0  0  0  0  0
   33.7970   34.8230   24.2140 H   0  0  0  0  0  0  0  0  0  0  0  0
   32.2110   35.1720   23.3890 H   0  0  0  0  0  0  0  0  0  0  0  0
   33.1730   33.6890   22.9210 H   0  0  0  0  0  0  0  0  0  0  0  0
   33.5650   40.4150   25.1090 H   0  0  0  0  0  0  0  0  0  0  0  0
  1  2  1  0  0  0  0
  1 10  1  0  0  0  0
  1 29  1  0  0  0  0
  1 30  1  0  0  0  0
  2  6  1  0  0  0  0
  2 31  1  0  0  0  0
  2 32  1  0  0  0  0
  3  4  1  0  0  0  0
  3  6  1  0  0  0  0
  3 33  1  0  0  0  0
  3 34  1  0  0  0  0
  4 10  1  0  0  0  0
  4 35  1  0  0  0  0
  4 36  1  0  0  0  0
  5  8  2  0  0  0  0
  5 13  1  0  0  0  0
  5 37  1  0  0  0  0
  7 18  1  0  0  0  0
  7 25  2  0  0  0  0
  7 26  1  0  0  0  0
  8 19  1  0  0  0  0
  8 21  1  0  0  0  0
  9 24  2  0  0  0  0
  9 27  1  0  0  0  0
  9 28  1  0  0  0  0
 10 28  1  0  0  0  0
 10 38  1  0  0  0  0
 11 12  1  0  0  0  0
 11 16  1  0  0  0  0
 11 17  2  0  0  0  0
 12 18  2  0  0  0  0
 12 39  1  0  0  0  0
 13 14  2  0  0  0  0
 13 22  1  0  0  0  0
 14 15  1  0  0  0  0
 14 40  1  0  0  0  0
 15 19  2  0  0  0  0
 15 41  1  0  0  0  0
 16 26  1  0  0  0  0
 16 27  2  0  0  0  0
 17 24  1  0  0  0  0
 17 42  1  0  0  0  0
 18 23  1  0  0  0  0
 19 23  1  0  0  0  0
 20 26  1  0  0  0  0
 20 43  1  0  0  0  0
 20 44  1  0  0  0  0
 20 45  1  0  0  0  0
 28 46  1  0  0  0  0
M  END
$$$$
