43
 OpenBabel02232411163D
Structure written by MMmdl.
 44 47  0  0  0  0  0  0  0  0999 V2000
    3.7640  -48.6670    7.2240 O   0  0  0  0  0  0  0  0  0  0  0  0
    3.3770  -49.6470    6.5710 C   0  0  0  0  0  0  0  0  0  0  0  0
    4.0880  -50.5180    6.0360 O   0  5  0  0  0  0  0  0  0  0  0  0
    1.8590  -49.8390    6.4010 C   0  0  0  0  0  0  0  0  0  0  0  0
   -0.1250  -50.9690    6.5650 C   0  0  0  0  0  0  0  0  0  0  0  0
   -1.1560  -51.8830    6.8430 C   0  0  0  0  0  0  0  0  0  0  0  0
   -2.4420  -51.5300    6.4610 C   0  0  0  0  0  0  0  0  0  0  0  0
   -2.7040  -50.3020    5.8080 C   0  0  0  0  0  0  0  0  0  0  0  0
   -1.6890  -49.3980    5.5280 C   0  0  0  0  0  0  0  0  0  0  0  0
   -0.3730  -49.7080    5.9110 C   0  0  0  0  0  0  0  0  0  0  0  0
    0.8950  -49.0140    5.8330 C   0  0  0  0  0  0  0  0  0  0  0  0
    1.0550  -47.6380    5.2910 C   0  0  0  0  0  0  0  0  0  0  0  0
    1.0920  -46.5680    6.4000 C   0  0  0  0  0  0  0  0  0  0  0  0
   -0.0560  -46.7000    7.3910 C   0  0  0  0  0  0  0  0  0  0  0  0
   -1.2650  -46.2630    6.6640 O   0  0  0  0  0  0  0  0  0  0  0  0
   -2.4420  -46.3370    7.3580 C   0  0  0  0  0  0  0  0  0  0  0  0
   -3.8550  -47.2450    9.1020 C   0  0  0  0  0  0  0  0  0  0  0  0
   -2.6900  -47.3040    8.3880 C   0  0  0  0  0  0  0  0  0  0  0  0
   -0.9610  -52.8300    7.3450 H   0  0  0  0  0  0  0  0  0  0  0  0
   -3.2740  -52.2050    6.6660 H   0  0  0  0  0  0  0  0  0  0  0  0
   -3.7330  -50.0720    5.5270 H   0  0  0  0  0  0  0  0  0  0  0  0
   -1.9180  -48.4570    5.0250 H   0  0  0  0  0  0  0  0  0  0  0  0
    0.1850  -47.4060    4.6260 H   0  0  0  0  0  0  0  0  0  0  0  0
    1.9950  -47.5520    4.6980 H   0  0  0  0  0  0  0  0  0  0  0  0
    2.0430  -46.6790    6.9790 H   0  0  0  0  0  0  0  0  0  0  0  0
    1.0490  -45.5590    5.9300 H   0  0  0  0  0  0  0  0  0  0  0  0
    0.0400  -46.0030    8.2480 H   0  0  0  0  0  0  0  0  0  0  0  0
   -0.2090  -47.7540    7.7000 H   0  0  0  0  0  0  0  0  0  0  0  0
   -1.9870  -48.1130    8.5680 H   0  0  0  0  0  0  0  0  0  0  0  0
   -3.4120  -45.4240    6.9850 C   0  0  0  0  0  0  0  0  0  0  0  0
   -4.0650  -47.9620    9.9000 H   0  0  0  0  0  0  0  0  0  0  0  0
   -4.6330  -45.3680    7.7120 C   0  0  0  0  0  0  0  0  0  0  0  0
   -4.8420  -46.2510    8.8070 C   0  0  0  0  0  0  0  0  0  0  0  0
   -6.0430  -46.1500    9.5670 C   0  0  0  0  0  0  0  0  0  0  0  0
   -7.0020  -45.2270    9.2310 C   0  0  0  0  0  0  0  0  0  0  0  0
   -6.8090  -44.3590    8.1190 C   0  0  0  0  0  0  0  0  0  0  0  0
   -5.6590  -44.4280    7.3740 C   0  0  0  0  0  0  0  0  0  0  0  0
   -6.1990  -46.8280   10.4070 H   0  0  0  0  0  0  0  0  0  0  0  0
   -7.9220  -45.1640    9.8020 H   0  0  0  0  0  0  0  0  0  0  0  0
   -7.5910  -43.6440    7.8640 H   0  0  0  0  0  0  0  0  0  0  0  0
   -5.5150  -43.7740    6.5130 H   0  0  0  0  0  0  0  0  0  0  0  0
   -3.2590  -44.7420    6.1530 H   0  0  0  0  0  0  0  0  0  0  0  0
    1.2490  -51.0260    6.8520 N   0  0  0  0  0  0  0  0  0  0  0  0
    1.6960  -51.8240    7.2880 H   0  0  0  0  0  0  0  0  0  0  0  0
  1  2  2  0  0  0  0
  2  3  1  0  0  0  0
  2  4  1  0  0  0  0
  4 11  2  0  0  0  0
  4 43  1  0  0  0  0
  5  6  2  0  0  0  0
  5 10  1  0  0  0  0
  5 43  1  0  0  0  0
  6  7  1  0  0  0  0
  6 19  1  0  0  0  0
  7  8  2  0  0  0  0
  7 20  1  0  0  0  0
  8  9  1  0  0  0  0
  8 21  1  0  0  0  0
  9 10  2  0  0  0  0
  9 22  1  0  0  0  0
 10 11  1  0  0  0  0
 11 12  1  0  0  0  0
 12 23  1  0  0  0  0
 12 24  1  0  0  0  0
 12 13  1  0  0  0  0
 13 14  1  0  0  0  0
 13 25  1  0  0  0  0
 13 26  1  0  0  0  0
 14 15  1  0  0  0  0
 14 27  1  0  0  0  0
 14 28  1  0  0  0  0
 15 16  1  0  0  0  0
 16 18  2  0  0  0  0
 16 30  1  0  0  0  0
 17 18  1  0  0  0  0
 17 31  1  0  0  0  0
 17 33  2  0  0  0  0
 18 29  1  0  0  0  0
 30 32  2  0  0  0  0
 30 42  1  0  0  0  0
 32 33  1  0  0  0  0
 32 37  1  0  0  0  0
 33 34  1  0  0  0  0
 34 35  2  0  0  0  0
 34 38  1  0  0  0  0
 35 36  1  0  0  0  0
 35 39  1  0  0  0  0
 36 37  2  0  0  0  0
 36 40  1  0  0  0  0
 37 41  1  0  0  0  0
 43 44  1  0  0  0  0
M  CHG  1   3  -1
M  END
$$$$
