p38a_2bb
 OpenBabel02232411163D
Structure written by MMmdl.
 44 46  0  0  0  0  0  0  0  0999 V2000
   36.2970   35.8010   16.1150 C   0  0  0  0  0  0  0  0  0  0  0  0
   34.5560   35.0940   21.7900 C   0  0  0  0  0  0  0  0  0  0  0  0
   35.5230   35.4400   17.2130 C   0  0  0  0  0  0  0  0  0  0  0  0
   34.4870   39.2270   24.3000 C   0  0  0  0  0  0  0  0  0  0  0  0
   34.3400   39.1600   26.8040 C   0  0  0  0  0  0  0  0  0  0  0  0
   34.7780   37.9580   21.8720 C   0  0  0  0  0  0  0  0  0  0  0  0
   35.0210   37.2690   20.6330 C   0  0  0  0  0  0  0  0  0  0  0  0
   37.5860   36.2790   16.3880 C   0  0  0  0  0  0  0  0  0  0  0  0
   38.1210   36.3570   17.6770 C   0  0  0  0  0  0  0  0  0  0  0  0
   37.3150   36.0080   18.7660 C   0  0  0  0  0  0  0  0  0  0  0  0
   34.5780   37.2190   23.0770 C   0  0  0  0  0  0  0  0  0  0  0  0
   34.7290   39.3740   21.9710 C   0  0  0  0  0  0  0  0  0  0  0  0
   34.9530   35.9180   20.6180 C   0  0  0  0  0  0  0  0  0  0  0  0
   36.0130   35.5570   18.5320 C   0  0  0  0  0  0  0  0  0  0  0  0
   34.3180   35.0670   24.3090 C   0  0  0  0  0  0  0  0  0  0  0  0
   34.3000   34.9550   17.0450 F   0  0  0  0  0  0  0  0  0  0  0  0
   35.1470   35.0790   19.5200 O   0  0  0  0  0  0  0  0  0  0  0  0
   34.5680   40.0170   23.1370 N   0  0  0  0  0  0  0  0  0  0  0  0
   34.2860   33.9140   21.7640 O   0  0  0  0  0  0  0  0  0  0  0  0
   34.4890   35.8200   23.0350 N   0  0  0  0  0  0  0  0  0  0  0  0
   34.4390   37.8470   24.2920 N   0  0  0  0  0  0  0  0  0  0  0  0
   34.5070   39.8920   25.5080 N   0  0  0  0  0  0  0  0  0  0  0  0
   35.9140   35.7460   15.0920 H   0  0  0  0  0  0  0  0  0  0  0  0
   35.1490   38.3770   26.8540 H   0  0  0  0  0  0  0  0  0  0  0  0
   35.2710   37.8660   19.7500 H   0  0  0  0  0  0  0  0  0  0  0  0
   39.1430   36.7150   17.8320 H   0  0  0  0  0  0  0  0  0  0  0  0
   37.7010   36.1120   19.7820 H   0  0  0  0  0  0  0  0  0  0  0  0
   34.8150   39.9930   21.0620 H   0  0  0  0  0  0  0  0  0  0  0  0
   35.1400   35.3380   25.0280 H   0  0  0  0  0  0  0  0  0  0  0  0
   33.3360   35.3290   24.7860 H   0  0  0  0  0  0  0  0  0  0  0  0
   34.3540   33.9630   24.1160 H   0  0  0  0  0  0  0  0  0  0  0  0
   34.2770   40.9050   25.5280 H   0  0  0  0  0  0  0  0  0  0  0  0
   38.3240   36.7080   15.3670 F   0  0  0  0  0  0  0  0  0  0  0  0
   34.4870   40.1530   27.9600 C   0  0  0  0  0  0  0  0  0  0  0  0
   33.3330   38.6590   26.8300 H   0  0  0  0  0  0  0  0  0  0  0  0
   35.5040   40.6330   27.8910 H   0  0  0  0  0  0  0  0  0  0  0  0
   33.7490   40.9910   27.8210 H   0  0  0  0  0  0  0  0  0  0  0  0
   35.5410   38.2570   29.7070 C   0  0  0  0  0  0  0  0  0  0  0  0
   34.2820   39.4480   29.5690 S   0  0  0  0  0  0  0  0  0  0  0  0
   34.4660   40.5080   30.5940 O   0  0  0  0  0  0  0  0  0  0  0  0
   32.9480   38.8180   29.7100 O   0  0  0  0  0  0  0  0  0  0  0  0
   35.3260   37.3390   29.1000 H   0  0  0  0  0  0  0  0  0  0  0  0
   36.5300   38.6600   29.3710 H   0  0  0  0  0  0  0  0  0  0  0  0
   35.6780   37.9120   30.7660 H   0  0  0  0  0  0  0  0  0  0  0  0
  1  3  2  0  0  0  0
  1  8  1  0  0  0  0
  1 23  1  0  0  0  0
  2 13  1  0  0  0  0
  2 19  2  0  0  0  0
  2 20  1  0  0  0  0
  3 14  1  0  0  0  0
  3 16  1  0  0  0  0
  4 18  2  0  0  0  0
  4 21  1  0  0  0  0
  4 22  1  0  0  0  0
  5 22  1  0  0  0  0
  5 24  1  0  0  0  0
  5 34  1  0  0  0  0
  5 35  1  0  0  0  0
  6  7  1  0  0  0  0
  6 11  1  0  0  0  0
  6 12  2  0  0  0  0
  7 13  2  0  0  0  0
  7 25  1  0  0  0  0
  8  9  2  0  0  0  0
  8 33  1  0  0  0  0
  9 10  1  0  0  0  0
  9 26  1  0  0  0  0
 10 14  2  0  0  0  0
 10 27  1  0  0  0  0
 11 20  1  0  0  0  0
 11 21  2  0  0  0  0
 12 18  1  0  0  0  0
 12 28  1  0  0  0  0
 13 17  1  0  0  0  0
 14 17  1  0  0  0  0
 15 20  1  0  0  0  0
 15 29  1  0  0  0  0
 15 30  1  0  0  0  0
 15 31  1  0  0  0  0
 22 32  1  0  0  0  0
 34 36  1  0  0  0  0
 34 37  1  0  0  0  0
 34 39  1  0  0  0  0
 38 39  1  0  0  0  0
 38 42  1  0  0  0  0
 38 43  1  0  0  0  0
 38 44  1  0  0  0  0
 39 40  2  0  0  0  0
 39 41  2  0  0  0  0
M  END
$$$$
