18633-1
 OpenBabel02232411163D
Structure written by MMmdl.
 42 43  0  0  0  0  0  0  0  0999 V2000
   23.7710   12.6270   30.3450 C   0  0  0  0  0  0  0  0  0  0  0  0
   23.3340   11.1790   30.4600 C   0  0  0  0  0  0  0  0  0  0  0  0
   22.0940   11.2680   31.2720 O   0  0  0  0  0  0  0  0  0  0  0  0
   21.4700   10.1260   31.6270 C   0  0  0  0  0  0  0  0  0  0  0  0
   21.9600    8.9360   31.2060 N   0  0  0  0  0  0  0  0  0  0  0  0
   21.2440    7.7950   31.5440 C   0  0  0  0  0  0  0  0  0  0  0  0
   20.0870    7.8350   32.3130 C   0  0  0  0  0  0  0  0  0  0  0  0
   19.5860    9.0870   32.7570 C   0  0  0  0  0  0  0  0  0  0  0  0
   18.4360    9.1280   33.5030 N   0  0  0  0  0  0  0  0  0  0  0  0
   20.2830   10.2860   32.4040 C   0  0  0  0  0  0  0  0  0  0  0  0
   19.8530   11.5870   32.7390 C   0  0  0  0  0  0  0  0  0  0  0  0
   19.5480   12.6820   32.9720 N   0  0  0  0  0  0  0  0  0  0  0  0
   21.8310    6.6240   31.0060 N   0  0  0  0  0  0  0  0  0  0  0  0
   21.2530    5.3330   30.9760 C   0  0  0  0  0  0  0  0  0  0  0  0
   20.1660    5.1060   31.4700 O   0  0  0  0  0  0  0  0  0  0  0  0
   22.0390    4.2760   30.2180 C   0  0  0  0  0  0  0  0  0  0  0  0
   23.5350    4.3850   30.3060 C   0  0  0  0  0  0  0  0  0  0  0  0
   24.2390    3.6540   31.2840 C   0  0  0  0  0  0  0  0  0  0  0  0
   25.6220    3.7400   31.3790 C   0  0  0  0  0  0  0  0  0  0  0  0
   26.3190    4.5710   30.4730 C   0  0  0  0  0  0  0  0  0  0  0  0
   25.6410    5.2990   29.4890 C   0  0  0  0  0  0  0  0  0  0  0  0
   24.2490    5.1950   29.4140 C   0  0  0  0  0  0  0  0  0  0  0  0
   27.6810    4.5550   30.6700 O   0  0  0  0  0  0  0  0  0  0  0  0
   28.4960    5.4190   29.8360 C   0  0  0  0  0  0  0  0  0  0  0  0
   24.6840   12.6740   29.6990 H   0  0  0  0  0  0  0  0  0  0  0  0
   22.9770   13.2480   29.8680 H   0  0  0  0  0  0  0  0  0  0  0  0
   24.0160   13.0590   31.3410 H   0  0  0  0  0  0  0  0  0  0  0  0
   23.0600   10.7370   29.4760 H   0  0  0  0  0  0  0  0  0  0  0  0
   24.0700   10.5520   31.0120 H   0  0  0  0  0  0  0  0  0  0  0  0
   19.5440    6.9210   32.5670 H   0  0  0  0  0  0  0  0  0  0  0  0
   17.9430    8.2540   33.7720 H   0  0  0  0  0  0  0  0  0  0  0  0
   18.0230   10.0130   33.7970 H   0  0  0  0  0  0  0  0  0  0  0  0
   22.7450    6.7690   30.5370 H   0  0  0  0  0  0  0  0  0  0  0  0
   21.7290    3.2670   30.6110 H   0  0  0  0  0  0  0  0  0  0  0  0
   21.7110    4.3410   29.1470 H   0  0  0  0  0  0  0  0  0  0  0  0
   23.6990    3.0010   31.9760 H   0  0  0  0  0  0  0  0  0  0  0  0
   26.1670    3.1730   32.1380 H   0  0  0  0  0  0  0  0  0  0  0  0
   26.1640    5.9480   28.7850 H   0  0  0  0  0  0  0  0  0  0  0  0
   23.7270    5.7740   28.6480 H   0  0  0  0  0  0  0  0  0  0  0  0
   29.5200    5.2220   30.2340 H   0  0  0  0  0  0  0  0  0  0  0  0
   28.4160    5.1130   28.7710 H   0  0  0  0  0  0  0  0  0  0  0  0
   28.2050    6.4830   29.9840 H   0  0  0  0  0  0  0  0  0  0  0  0
  1  2  1  0  0  0  0
  1 25  1  0  0  0  0
  1 26  1  0  0  0  0
  1 27  1  0  0  0  0
  2  3  1  0  0  0  0
  2 28  1  0  0  0  0
  2 29  1  0  0  0  0
  3  4  1  0  0  0  0
  4 10  2  0  0  0  0
  4  5  1  0  0  0  0
  5  6  2  0  0  0  0
  6  7  1  0  0  0  0
  6 13  1  0  0  0  0
  7  8  2  0  0  0  0
  7 30  1  0  0  0  0
  8  9  1  0  0  0  0
  8 10  1  0  0  0  0
  9 31  1  0  0  0  0
  9 32  1  0  0  0  0
 10 11  1  0  0  0  0
 11 12  3  0  0  0  0
 13 14  1  0  0  0  0
 13 33  1  0  0  0  0
 14 15  2  0  0  0  0
 14 16  1  0  0  0  0
 16 17  1  0  0  0  0
 16 34  1  0  0  0  0
 16 35  1  0  0  0  0
 17 22  2  0  0  0  0
 17 18  1  0  0  0  0
 18 19  2  0  0  0  0
 18 36  1  0  0  0  0
 19 20  1  0  0  0  0
 19 37  1  0  0  0  0
 20 21  2  0  0  0  0
 20 23  1  0  0  0  0
 21 22  1  0  0  0  0
 21 38  1  0  0  0  0
 22 39  1  0  0  0  0
 23 24  1  0  0  0  0
 24 40  1  0  0  0  0
 24 41  1  0  0  0  0
 24 42  1  0  0  0  0
M  END
$$$$
