p38a_2u
 OpenBabel02232411163D
Structure written by MMmdl.
 64 68  0  0  0  0  0  0  0  0999 V2000
   38.2560   36.4970   17.2270 C   0  0  0  0  0  0  0  0  0  0  0  0
   34.5100   35.1420   21.3710 C   0  0  0  0  0  0  0  0  0  0  0  0
   37.4910   36.0670   18.3080 C   0  0  0  0  0  0  0  0  0  0  0  0
   33.9910   39.2890   23.8110 C   0  0  0  0  0  0  0  0  0  0  0  0
   34.6270   38.0220   21.4460 C   0  0  0  0  0  0  0  0  0  0  0  0
   35.0440   37.3340   20.2550 C   0  0  0  0  0  0  0  0  0  0  0  0
   37.5870   36.6260   16.0020 C   0  0  0  0  0  0  0  0  0  0  0  0
   36.2340   36.3210   15.8280 C   0  0  0  0  0  0  0  0  0  0  0  0
   35.4910   35.8800   16.9280 C   0  0  0  0  0  0  0  0  0  0  0  0
   34.2180   37.2800   22.5930 C   0  0  0  0  0  0  0  0  0  0  0  0
   34.6230   39.4390   21.5600 C   0  0  0  0  0  0  0  0  0  0  0  0
   35.0220   35.9830   20.2500 C   0  0  0  0  0  0  0  0  0  0  0  0
   36.1250   35.7430   18.1660 C   0  0  0  0  0  0  0  0  0  0  0  0
   38.0470   35.9580   19.5080 F   0  0  0  0  0  0  0  0  0  0  0  0
   35.4280   35.1360   19.2200 O   0  0  0  0  0  0  0  0  0  0  0  0
   34.3210   40.0850   22.6960 N   0  0  0  0  0  0  0  0  0  0  0  0
   34.4190   33.9350   21.3260 O   0  0  0  0  0  0  0  0  0  0  0  0
   34.1000   35.8730   22.5410 N   0  0  0  0  0  0  0  0  0  0  0  0
   33.9260   37.9100   23.7750 N   0  0  0  0  0  0  0  0  0  0  0  0
   33.6540   39.9320   24.9810 N   0  0  0  0  0  0  0  0  0  0  0  0
   39.3120   36.7580   17.3370 H   0  0  0  0  0  0  0  0  0  0  0  0
   35.3760   37.9300   19.4030 H   0  0  0  0  0  0  0  0  0  0  0  0
   35.7480   36.4370   14.8560 H   0  0  0  0  0  0  0  0  0  0  0  0
   34.4240   35.6630   16.8140 H   0  0  0  0  0  0  0  0  0  0  0  0
   34.8750   40.0560   20.6820 H   0  0  0  0  0  0  0  0  0  0  0  0
   33.8080   40.9550   25.0660 H   0  0  0  0  0  0  0  0  0  0  0  0
   38.2680   37.1000   14.9620 F   0  0  0  0  0  0  0  0  0  0  0  0
   32.4060   39.3270   28.5410 C   0  0  0  0  0  0  0  0  0  0  0  0
   32.4970   39.9760   27.1550 C   0  0  0  0  0  0  0  0  0  0  0  0
   33.4980   39.1980   26.2750 C   0  0  0  0  0  0  0  0  0  0  0  0
   34.8590   39.0680   26.9930 C   0  0  0  0  0  0  0  0  0  0  0  0
   34.6550   38.4640   28.3880 C   0  0  0  0  0  0  0  0  0  0  0  0
   33.7050   39.2260   29.1680 O   0  0  0  0  0  0  0  0  0  0  0  0
   31.9530   38.3100   28.4770 H   0  0  0  0  0  0  0  0  0  0  0  0
   31.8520   39.9800   29.2540 H   0  0  0  0  0  0  0  0  0  0  0  0
   32.8310   41.0350   27.2650 H   0  0  0  0  0  0  0  0  0  0  0  0
   31.4940   39.9720   26.6670 H   0  0  0  0  0  0  0  0  0  0  0  0
   33.0850   38.1710   26.0630 H   0  0  0  0  0  0  0  0  0  0  0  0
   35.5360   38.4030   26.4040 H   0  0  0  0  0  0  0  0  0  0  0  0
   35.3390   40.0710   27.0800 H   0  0  0  0  0  0  0  0  0  0  0  0
   34.3010   37.4090   28.3150 H   0  0  0  0  0  0  0  0  0  0  0  0
   35.5830   38.5410   29.0000 H   0  0  0  0  0  0  0  0  0  0  0  0
   34.0290   33.8570   25.8410 C   0  0  0  0  0  0  0  0  0  0  0  0
   34.6510   34.4540   24.5570 C   0  0  0  0  0  0  0  0  0  0  0  0
   33.5430   35.1580   23.7520 C   0  0  0  0  0  0  0  0  0  0  0  0
   32.4540   34.1390   23.3720 C   0  0  0  0  0  0  0  0  0  0  0  0
   31.8500   33.5500   24.6640 C   0  0  0  0  0  0  0  0  0  0  0  0
   33.6820   34.7010   26.4990 H   0  0  0  0  0  0  0  0  0  0  0  0
   34.8400   33.2940   26.3750 H   0  0  0  0  0  0  0  0  0  0  0  0
   35.1220   33.6390   23.9620 H   0  0  0  0  0  0  0  0  0  0  0  0
   35.4360   35.1880   24.8590 H   0  0  0  0  0  0  0  0  0  0  0  0
   33.0670   35.9410   24.4170 H   0  0  0  0  0  0  0  0  0  0  0  0
   31.6390   34.6350   22.7940 H   0  0  0  0  0  0  0  0  0  0  0  0
   32.8900   33.3130   22.7570 H   0  0  0  0  0  0  0  0  0  0  0  0
   31.3200   34.3710   25.2200 H   0  0  0  0  0  0  0  0  0  0  0  0
   31.1150   32.7550   24.3660 H   0  0  0  0  0  0  0  0  0  0  0  0
   32.9070   32.9180   25.5180 N   0  0  0  0  0  0  0  0  0  0  0  0
   32.3170   31.9230   26.8070 S   0  0  0  0  0  0  0  0  0  0  0  0
   31.3530   30.9790   26.2060 O   0  0  0  0  0  0  0  0  0  0  0  0
   31.6870   32.7390   27.8620 O   0  0  0  0  0  0  0  0  0  0  0  0
   33.7200   31.0990   27.4020 C   0  0  0  0  0  0  0  0  0  0  0  0
   34.3620   30.7060   26.5720 H   0  0  0  0  0  0  0  0  0  0  0  0
   34.3540   31.7500   28.0630 H   0  0  0  0  0  0  0  0  0  0  0  0
   33.4380   30.2120   28.0360 H   0  0  0  0  0  0  0  0  0  0  0  0
  1  3  2  0  0  0  0
  1  7  1  0  0  0  0
  1 21  1  0  0  0  0
  2 12  1  0  0  0  0
  2 17  2  0  0  0  0
  2 18  1  0  0  0  0
  3 13  1  0  0  0  0
  3 14  1  0  0  0  0
  4 16  2  0  0  0  0
  4 19  1  0  0  0  0
  4 20  1  0  0  0  0
  5  6  1  0  0  0  0
  5 10  1  0  0  0  0
  5 11  2  0  0  0  0
  6 12  2  0  0  0  0
  6 22  1  0  0  0  0
  7  8  2  0  0  0  0
  7 27  1  0  0  0  0
  8  9  1  0  0  0  0
  8 23  1  0  0  0  0
  9 13  2  0  0  0  0
  9 24  1  0  0  0  0
 10 18  1  0  0  0  0
 10 19  2  0  0  0  0
 11 16  1  0  0  0  0
 11 25  1  0  0  0  0
 12 15  1  0  0  0  0
 13 15  1  0  0  0  0
 18 45  1  0  0  0  0
 20 26  1  0  0  0  0
 20 30  1  0  0  0  0
 28 29  1  0  0  0  0
 28 33  1  0  0  0  0
 28 34  1  0  0  0  0
 28 35  1  0  0  0  0
 29 30  1  0  0  0  0
 29 36  1  0  0  0  0
 29 37  1  0  0  0  0
 30 31  1  0  0  0  0
 30 38  1  0  0  0  0
 31 32  1  0  0  0  0
 31 39  1  0  0  0  0
 31 40  1  0  0  0  0
 32 33  1  0  0  0  0
 32 41  1  0  0  0  0
 32 42  1  0  0  0  0
 43 44  1  0  0  0  0
 43 48  1  0  0  0  0
 43 49  1  0  0  0  0
 43 57  1  0  0  0  0
 44 45  1  0  0  0  0
 44 50  1  0  0  0  0
 44 51  1  0  0  0  0
 45 46  1  0  0  0  0
 45 52  1  0  0  0  0
 46 47  1  0  0  0  0
 46 53  1  0  0  0  0
 46 54  1  0  0  0  0
 47 55  1  0  0  0  0
 47 56  1  0  0  0  0
 47 57  1  0  0  0  0
 57 58  1  0  0  0  0
 58 59  2  0  0  0  0
 58 60  2  0  0  0  0
 58 61  1  0  0  0  0
 61 62  1  0  0  0  0
 61 63  1  0  0  0  0
 61 64  1  0  0  0  0
M  END
$$$$
