18632-1
 OpenBabel02232411163D
Structure written by MMmdl.
 42 43  0  0  0  0  0  0  0  0999 V2000
   24.4750   11.0160   30.7750 C   0  0  0  0  0  0  0  0  0  0  0  0
   23.1340   11.2280   30.1050 C   0  0  0  0  0  0  0  0  0  0  0  0
   22.0570   11.2580   31.1180 O   0  0  0  0  0  0  0  0  0  0  0  0
   21.4880   10.1010   31.5220 C   0  0  0  0  0  0  0  0  0  0  0  0
   21.9720    8.9160   31.0820 N   0  0  0  0  0  0  0  0  0  0  0  0
   21.2860    7.7680   31.4490 C   0  0  0  0  0  0  0  0  0  0  0  0
   20.1570    7.7930   32.2610 C   0  0  0  0  0  0  0  0  0  0  0  0
   19.6580    9.0410   32.7230 C   0  0  0  0  0  0  0  0  0  0  0  0
   18.5160    9.0780   33.4830 N   0  0  0  0  0  0  0  0  0  0  0  0
   20.3420   10.2440   32.3610 C   0  0  0  0  0  0  0  0  0  0  0  0
   19.9270   11.5390   32.7390 C   0  0  0  0  0  0  0  0  0  0  0  0
   19.6390   12.6290   33.0110 N   0  0  0  0  0  0  0  0  0  0  0  0
   21.8610    6.6070   30.8770 N   0  0  0  0  0  0  0  0  0  0  0  0
   21.3030    5.3040   30.8610 C   0  0  0  0  0  0  0  0  0  0  0  0
   20.2810    5.0230   31.4490 O   0  0  0  0  0  0  0  0  0  0  0  0
   22.0740    4.3310   29.9840 C   0  0  0  0  0  0  0  0  0  0  0  0
   23.3980    3.9300   30.5820 C   0  0  0  0  0  0  0  0  0  0  0  0
   24.5640    4.6080   30.2210 C   0  0  0  0  0  0  0  0  0  0  0  0
   25.7890    4.2040   30.7920 C   0  0  0  0  0  0  0  0  0  0  0  0
   26.8570    4.9310   30.3190 O   0  0  0  0  0  0  0  0  0  0  0  0
   28.1820    4.6050   30.8110 C   0  0  0  0  0  0  0  0  0  0  0  0
   25.8590    3.1590   31.7220 C   0  0  0  0  0  0  0  0  0  0  0  0
   24.6790    2.4910   32.0590 C   0  0  0  0  0  0  0  0  0  0  0  0
   23.4580    2.8600   31.4900 C   0  0  0  0  0  0  0  0  0  0  0  0
   25.2750   10.9820   29.9930 H   0  0  0  0  0  0  0  0  0  0  0  0
   24.4990   10.0470   31.3270 H   0  0  0  0  0  0  0  0  0  0  0  0
   24.7040   11.8430   31.4800 H   0  0  0  0  0  0  0  0  0  0  0  0
   22.9120   10.4510   29.3400 H   0  0  0  0  0  0  0  0  0  0  0  0
   23.0240   12.2600   29.6910 H   0  0  0  0  0  0  0  0  0  0  0  0
   19.6340    6.8730   32.5330 H   0  0  0  0  0  0  0  0  0  0  0  0
   18.0230    8.2060   33.7570 H   0  0  0  0  0  0  0  0  0  0  0  0
   18.1110    9.9630   33.7890 H   0  0  0  0  0  0  0  0  0  0  0  0
   22.7430    6.7700   30.3520 H   0  0  0  0  0  0  0  0  0  0  0  0
   21.4470    3.4110   29.8370 H   0  0  0  0  0  0  0  0  0  0  0  0
   22.2320    4.8010   28.9770 H   0  0  0  0  0  0  0  0  0  0  0  0
   24.5560    5.4290   29.5040 H   0  0  0  0  0  0  0  0  0  0  0  0
   28.4440    3.5570   30.5450 H   0  0  0  0  0  0  0  0  0  0  0  0
   28.8160    5.3310   30.2490 H   0  0  0  0  0  0  0  0  0  0  0  0
   28.2390    4.7810   31.9060 H   0  0  0  0  0  0  0  0  0  0  0  0
   26.8000    2.8480   32.1780 H   0  0  0  0  0  0  0  0  0  0  0  0
   24.7180    1.6620   32.7750 H   0  0  0  0  0  0  0  0  0  0  0  0
   22.5610    2.2970   31.7490 H   0  0  0  0  0  0  0  0  0  0  0  0
  1  2  1  0  0  0  0
  1 25  1  0  0  0  0
  1 26  1  0  0  0  0
  1 27  1  0  0  0  0
  2  3  1  0  0  0  0
  2 28  1  0  0  0  0
  2 29  1  0  0  0  0
  3  4  1  0  0  0  0
  4 10  2  0  0  0  0
  4  5  1  0  0  0  0
  5  6  2  0  0  0  0
  6  7  1  0  0  0  0
  6 13  1  0  0  0  0
  7  8  2  0  0  0  0
  7 30  1  0  0  0  0
  8  9  1  0  0  0  0
  8 10  1  0  0  0  0
  9 31  1  0  0  0  0
  9 32  1  0  0  0  0
 10 11  1  0  0  0  0
 11 12  3  0  0  0  0
 13 14  1  0  0  0  0
 13 33  1  0  0  0  0
 14 15  2  0  0  0  0
 14 16  1  0  0  0  0
 16 17  1  0  0  0  0
 16 34  1  0  0  0  0
 16 35  1  0  0  0  0
 17 24  2  0  0  0  0
 17 18  1  0  0  0  0
 18 19  2  0  0  0  0
 18 36  1  0  0  0  0
 19 20  1  0  0  0  0
 19 22  1  0  0  0  0
 20 21  1  0  0  0  0
 21 37  1  0  0  0  0
 21 38  1  0  0  0  0
 21 39  1  0  0  0  0
 22 23  2  0  0  0  0
 22 40  1  0  0  0  0
 23 24  1  0  0  0  0
 23 41  1  0  0  0  0
 24 42  1  0  0  0  0
M  END
$$$$
