30
 OpenBabel02232411153D
Structure written by MMmdl.
 51 54  0  0  0  0  0  0  0  0999 V2000
    1.9020   28.9400    6.7010 C   0  0  0  0  0  0  0  0  0  0  0  0
   -1.5770   31.4870    7.9620 C   0  0  0  0  0  0  0  0  0  0  0  0
    0.1020   26.0820    8.9700 C   0  0  0  0  0  0  0  0  0  0  0  0
   -0.7600   25.3420    9.9980 C   0  0  0  0  0  0  0  0  0  0  0  0
   -0.6460   23.8270    9.7160 C   0  0  0  0  0  0  0  0  0  0  0  0
   -1.4150   23.0110   10.7640 C   0  0  0  0  0  0  0  0  0  0  0  0
   -0.9660   23.3510   12.1940 C   0  0  0  0  0  0  0  0  0  0  0  0
   -1.0850   24.8570   12.4740 C   0  0  0  0  0  0  0  0  0  0  0  0
   -0.3140   25.6820   11.4330 C   0  0  0  0  0  0  0  0  0  0  0  0
    5.4870   25.8820    5.2510 C   0  0  0  0  0  0  0  0  0  0  0  0
    5.4530   25.0620    6.3850 C   0  0  0  0  0  0  0  0  0  0  0  0
    4.6070   25.4050    7.4490 C   0  0  0  0  0  0  0  0  0  0  0  0
    3.8020   26.5460    7.3940 C   0  0  0  0  0  0  0  0  0  0  0  0
    1.2360   27.9790    7.4520 N   0  0  0  0  0  0  0  0  0  0  0  0
    0.0490   28.2940    8.0370 C   0  0  0  0  0  0  0  0  0  0  0  0
   -0.5860   27.3900    8.7940 O   0  0  0  0  0  0  0  0  0  0  0  0
   -0.5060   29.5900    7.8690 C   0  0  0  0  0  0  0  0  0  0  0  0
   -1.6560   30.2150    8.3630 N   0  0  0  0  0  0  0  0  0  0  0  0
   -0.3800   31.7470    7.2070 N   0  0  0  0  0  0  0  0  0  0  0  0
    0.2990   30.5370    7.1150 C   0  0  0  0  0  0  0  0  0  0  0  0
    1.4870   30.2430    6.4920 N   0  0  0  0  0  0  0  0  0  0  0  0
    3.0920   28.5620    6.0780 N   0  0  0  0  0  0  0  0  0  0  0  0
    3.8320   27.3580    6.2490 C   0  0  0  0  0  0  0  0  0  0  0  0
    4.6970   27.0200    5.1800 C   0  0  0  0  0  0  0  0  0  0  0  0
   -2.2900   32.2790    8.1730 H   0  0  0  0  0  0  0  0  0  0  0  0
    1.1320   26.2770    9.3420 H   0  0  0  0  0  0  0  0  0  0  0  0
    0.1020   25.5930    7.9750 H   0  0  0  0  0  0  0  0  0  0  0  0
   -1.8260   25.6560    9.8810 H   0  0  0  0  0  0  0  0  0  0  0  0
   -1.0610   23.6070    8.7070 H   0  0  0  0  0  0  0  0  0  0  0  0
    0.4300   23.5260    9.7390 H   0  0  0  0  0  0  0  0  0  0  0  0
   -2.5000   23.2330   10.6680 H   0  0  0  0  0  0  0  0  0  0  0  0
   -1.2480   21.9240   10.5840 H   0  0  0  0  0  0  0  0  0  0  0  0
   -1.5980   22.7890   12.9200 H   0  0  0  0  0  0  0  0  0  0  0  0
    0.0960   23.0370   12.3300 H   0  0  0  0  0  0  0  0  0  0  0  0
   -2.1590   25.1520   12.4710 H   0  0  0  0  0  0  0  0  0  0  0  0
   -0.6670   25.0770   13.4850 H   0  0  0  0  0  0  0  0  0  0  0  0
    0.7760   25.4700   11.5500 H   0  0  0  0  0  0  0  0  0  0  0  0
   -0.4820   26.7660   11.6270 H   0  0  0  0  0  0  0  0  0  0  0  0
    6.1330   25.6600    4.3940 H   0  0  0  0  0  0  0  0  0  0  0  0
    4.5680   24.7910    8.3600 H   0  0  0  0  0  0  0  0  0  0  0  0
    3.1600   26.7920    8.2430 H   0  0  0  0  0  0  0  0  0  0  0  0
   -0.1320   32.6350    6.7460 H   0  0  0  0  0  0  0  0  0  0  0  0
    3.5520   29.2520    5.4320 H   0  0  0  0  0  0  0  0  0  0  0  0
    4.7670   27.6560    4.3010 H   0  0  0  0  0  0  0  0  0  0  0  0
    6.4930   23.6920    6.5360 S   0  0  0  0  0  0  0  0  0  0  0  0
    7.2360   23.8890    7.7870 O   0  0  0  0  0  0  0  0  0  0  0  0
    5.6900   22.4450    6.5330 O   0  0  0  0  0  0  0  0  0  0  0  0
    7.6140   23.6660    5.2180 C   0  0  0  0  0  0  0  0  0  0  0  0
    8.4000   22.8750    5.3540 H   0  0  0  0  0  0  0  0  0  0  0  0
    7.1370   23.4590    4.2230 H   0  0  0  0  0  0  0  0  0  0  0  0
    8.1760   24.6330    5.1030 H   0  0  0  0  0  0  0  0  0  0  0  0
  1 14  2  0  0  0  0
  1 21  1  0  0  0  0
  1 22  1  0  0  0  0
  2 18  2  0  0  0  0
  2 19  1  0  0  0  0
  2 25  1  0  0  0  0
  3  4  1  0  0  0  0
  3 16  1  0  0  0  0
  3 26  1  0  0  0  0
  3 27  1  0  0  0  0
  4  5  1  0  0  0  0
  4  9  1  0  0  0  0
  4 28  1  0  0  0  0
  5  6  1  0  0  0  0
  5 29  1  0  0  0  0
  5 30  1  0  0  0  0
  6  7  1  0  0  0  0
  6 31  1  0  0  0  0
  6 32  1  0  0  0  0
  7  8  1  0  0  0  0
  7 33  1  0  0  0  0
  7 34  1  0  0  0  0
  8  9  1  0  0  0  0
  8 35  1  0  0  0  0
  8 36  1  0  0  0  0
  9 37  1  0  0  0  0
  9 38  1  0  0  0  0
 10 11  2  0  0  0  0
 10 24  1  0  0  0  0
 10 39  1  0  0  0  0
 11 12  1  0  0  0  0
 11 45  1  0  0  0  0
 12 13  2  0  0  0  0
 12 40  1  0  0  0  0
 13 23  1  0  0  0  0
 13 41  1  0  0  0  0
 14 15  1  0  0  0  0
 15 16  1  0  0  0  0
 15 17  2  0  0  0  0
 17 18  1  0  0  0  0
 17 20  1  0  0  0  0
 19 20  1  0  0  0  0
 19 42  1  0  0  0  0
 20 21  2  0  0  0  0
 22 23  1  0  0  0  0
 22 43  1  0  0  0  0
 23 24  2  0  0  0  0
 24 44  1  0  0  0  0
 45 46  2  0  0  0  0
 45 47  2  0  0  0  0
 45 48  1  0  0  0  0
 48 49  1  0  0  0  0
 48 50  1  0  0  0  0
 48 51  1  0  0  0  0
M  END
$$$$
