18639-1
 OpenBabel02232411163D
Structure written by MMmdl.
 48 49  0  0  0  0  0  0  0  0999 V2000
   24.4370   10.9340   30.7560 C   0  0  0  0  0  0  0  0  0  0  0  0
   23.1070   11.2760   30.1190 C   0  0  0  0  0  0  0  0  0  0  0  0
   22.0340   11.3340   31.1350 O   0  0  0  0  0  0  0  0  0  0  0  0
   21.4510   10.1830   31.5430 C   0  0  0  0  0  0  0  0  0  0  0  0
   21.9330    8.9950   31.1100 N   0  0  0  0  0  0  0  0  0  0  0  0
   21.2380    7.8520   31.4740 C   0  0  0  0  0  0  0  0  0  0  0  0
   20.1010    7.8820   32.2730 C   0  0  0  0  0  0  0  0  0  0  0  0
   19.6100    9.1330   32.7360 C   0  0  0  0  0  0  0  0  0  0  0  0
   18.4750    9.1690   33.5050 N   0  0  0  0  0  0  0  0  0  0  0  0
   20.2990   10.3340   32.3720 C   0  0  0  0  0  0  0  0  0  0  0  0
   19.8830   11.6320   32.7370 C   0  0  0  0  0  0  0  0  0  0  0  0
   19.5930   12.7250   32.9950 N   0  0  0  0  0  0  0  0  0  0  0  0
   21.8270    6.6890   30.9240 N   0  0  0  0  0  0  0  0  0  0  0  0
   21.2640    5.3970   30.8760 C   0  0  0  0  0  0  0  0  0  0  0  0
   20.1930    5.1210   31.3730 O   0  0  0  0  0  0  0  0  0  0  0  0
   22.0990    4.4080   30.0680 C   0  0  0  0  0  0  0  0  0  0  0  0
   23.4750    4.1630   30.6150 C   0  0  0  0  0  0  0  0  0  0  0  0
   24.5560    5.0420   30.2890 C   0  0  0  0  0  0  0  0  0  0  0  0
   24.1750    6.0910   29.4620 O   0  0  0  0  0  0  0  0  0  0  0  0
   25.1160    7.1880   29.2870 C   0  0  0  0  0  0  0  0  0  0  0  0
   25.8440    4.8130   30.7450 C   0  0  0  0  0  0  0  0  0  0  0  0
   26.1000    3.6980   31.5710 C   0  0  0  0  0  0  0  0  0  0  0  0
   27.4620    3.4590   32.0560 N   0  3  0  0  0  0  0  0  0  0  0  0
   27.6220    2.6440   32.9510 O   0  5  0  0  0  0  0  0  0  0  0  0
   28.3840    4.0810   31.5410 O   0  0  0  0  0  0  0  0  0  0  0  0
   25.0440    2.8180   31.9030 C   0  0  0  0  0  0  0  0  0  0  0  0
   23.7400    3.0590   31.4090 C   0  0  0  0  0  0  0  0  0  0  0  0
   25.4150    1.7810   32.7040 O   0  0  0  0  0  0  0  0  0  0  0  0
   24.4330    0.7310   32.9520 C   0  0  0  0  0  0  0  0  0  0  0  0
   25.2230   10.8850   29.9610 H   0  0  0  0  0  0  0  0  0  0  0  0
   24.7340   11.7020   31.5010 H   0  0  0  0  0  0  0  0  0  0  0  0
   24.3990    9.9370   31.2560 H   0  0  0  0  0  0  0  0  0  0  0  0
   23.0700   12.3320   29.7560 H   0  0  0  0  0  0  0  0  0  0  0  0
   22.8230   10.5530   29.3220 H   0  0  0  0  0  0  0  0  0  0  0  0
   19.5680    6.9650   32.5320 H   0  0  0  0  0  0  0  0  0  0  0  0
   17.9750    8.2940   33.7560 H   0  0  0  0  0  0  0  0  0  0  0  0
   18.0620   10.0530   33.8030 H   0  0  0  0  0  0  0  0  0  0  0  0
   22.7330    6.8490   30.4150 H   0  0  0  0  0  0  0  0  0  0  0  0
   21.5400    3.4350   30.0180 H   0  0  0  0  0  0  0  0  0  0  0  0
   22.1940    4.8150   29.0210 H   0  0  0  0  0  0  0  0  0  0  0  0
   25.4720    7.5640   30.2700 H   0  0  0  0  0  0  0  0  0  0  0  0
   25.9470    6.8490   28.6340 H   0  0  0  0  0  0  0  0  0  0  0  0
   24.4740    7.9450   28.7770 H   0  0  0  0  0  0  0  0  0  0  0  0
   26.6740    5.4730   30.4640 H   0  0  0  0  0  0  0  0  0  0  0  0
   22.9350    2.3590   31.6510 H   0  0  0  0  0  0  0  0  0  0  0  0
   25.0370    0.0010   33.5440 H   0  0  0  0  0  0  0  0  0  0  0  0
   23.5890    1.1300   33.5540 H   0  0  0  0  0  0  0  0  0  0  0  0
   24.0990    0.2850   31.9900 H   0  0  0  0  0  0  0  0  0  0  0  0
  1  2  1  0  0  0  0
  1 30  1  0  0  0  0
  1 31  1  0  0  0  0
  1 32  1  0  0  0  0
  2  3  1  0  0  0  0
  2 33  1  0  0  0  0
  2 34  1  0  0  0  0
  3  4  1  0  0  0  0
  4 10  2  0  0  0  0
  4  5  1  0  0  0  0
  5  6  2  0  0  0  0
  6  7  1  0  0  0  0
  6 13  1  0  0  0  0
  7  8  2  0  0  0  0
  7 35  1  0  0  0  0
  8  9  1  0  0  0  0
  8 10  1  0  0  0  0
  9 36  1  0  0  0  0
  9 37  1  0  0  0  0
 10 11  1  0  0  0  0
 11 12  3  0  0  0  0
 13 14  1  0  0  0  0
 13 38  1  0  0  0  0
 14 15  2  0  0  0  0
 14 16  1  0  0  0  0
 16 17  1  0  0  0  0
 16 39  1  0  0  0  0
 16 40  1  0  0  0  0
 17 27  2  0  0  0  0
 17 18  1  0  0  0  0
 18 19  1  0  0  0  0
 18 21  2  0  0  0  0
 19 20  1  0  0  0  0
 20 41  1  0  0  0  0
 20 42  1  0  0  0  0
 20 43  1  0  0  0  0
 21 22  1  0  0  0  0
 21 44  1  0  0  0  0
 22 23  1  0  0  0  0
 22 26  2  0  0  0  0
 23 24  1  0  0  0  0
 23 25  2  0  0  0  0
 26 27  1  0  0  0  0
 26 28  1  0  0  0  0
 27 45  1  0  0  0  0
 28 29  1  0  0  0  0
 29 46  1  0  0  0  0
 29 47  1  0  0  0  0
 29 48  1  0  0  0  0
M  CHG  2  23   1  24  -1
M  END
$$$$
