23
 OpenBabel02232411163D
Structure written by MMmdl.
 43 46  0  0  0  0  0  0  0  0999 V2000
    3.7400  -49.7790    5.9040 O   0  0  0  0  0  0  0  0  0  0  0  0
    2.9740  -48.9520    6.4350 C   0  0  0  0  0  0  0  0  0  0  0  0
    3.2920  -47.9330    7.0620 O   0  5  0  0  0  0  0  0  0  0  0  0
    1.4900  -49.3300    6.3430 C   0  0  0  0  0  0  0  0  0  0  0  0
    1.1540  -50.9900    6.8190 S   0  0  0  0  0  0  0  0  0  0  0  0
   -0.5590  -50.8230    6.5440 C   0  0  0  0  0  0  0  0  0  0  0  0
   -1.5470  -51.7860    6.7350 C   0  0  0  0  0  0  0  0  0  0  0  0
   -2.8660  -51.4390    6.4410 C   0  0  0  0  0  0  0  0  0  0  0  0
   -3.1740  -50.1530    5.9640 C   0  0  0  0  0  0  0  0  0  0  0  0
   -2.1800  -49.1930    5.7770 C   0  0  0  0  0  0  0  0  0  0  0  0
   -0.8440  -49.5160    6.0700 C   0  0  0  0  0  0  0  0  0  0  0  0
    0.3600  -48.6760    5.9740 C   0  0  0  0  0  0  0  0  0  0  0  0
    0.2680  -47.2610    5.4950 C   0  0  0  0  0  0  0  0  0  0  0  0
    0.2340  -46.2330    6.6380 C   0  0  0  0  0  0  0  0  0  0  0  0
   -0.9350  -46.3880    7.6030 C   0  0  0  0  0  0  0  0  0  0  0  0
   -2.1050  -45.8190    6.9030 O   0  0  0  0  0  0  0  0  0  0  0  0
   -3.2940  -45.8160    7.5720 C   0  0  0  0  0  0  0  0  0  0  0  0
   -5.8350  -45.5860    8.7560 C   0  0  0  0  0  0  0  0  0  0  0  0
   -4.8500  -46.3400    9.3450 C   0  0  0  0  0  0  0  0  0  0  0  0
   -3.5600  -46.4600    8.7660 C   0  0  0  0  0  0  0  0  0  0  0  0
   -1.3180  -52.7870    7.1070 H   0  0  0  0  0  0  0  0  0  0  0  0
   -3.6650  -52.1650    6.5830 H   0  0  0  0  0  0  0  0  0  0  0  0
   -4.2150  -49.9090    5.7400 H   0  0  0  0  0  0  0  0  0  0  0  0
   -2.4620  -48.2040    5.4130 H   0  0  0  0  0  0  0  0  0  0  0  0
   -0.6620  -47.1370    4.8820 H   0  0  0  0  0  0  0  0  0  0  0  0
    1.1450  -47.0190    4.8450 H   0  0  0  0  0  0  0  0  0  0  0  0
    0.1850  -45.2080    6.1990 H   0  0  0  0  0  0  0  0  0  0  0  0
    1.1750  -46.3290    7.2400 H   0  0  0  0  0  0  0  0  0  0  0  0
   -0.7980  -45.7600    8.5100 H   0  0  0  0  0  0  0  0  0  0  0  0
   -1.1740  -47.4490    7.8240 H   0  0  0  0  0  0  0  0  0  0  0  0
   -2.8320  -47.0720    9.2870 H   0  0  0  0  0  0  0  0  0  0  0  0
   -5.5930  -44.9410    7.5030 C   0  0  0  0  0  0  0  0  0  0  0  0
   -4.3150  -45.0500    6.8920 C   0  0  0  0  0  0  0  0  0  0  0  0
   -4.0900  -44.4500    5.6200 C   0  0  0  0  0  0  0  0  0  0  0  0
   -5.0930  -43.7560    4.9870 C   0  0  0  0  0  0  0  0  0  0  0  0
   -6.3760  -43.6540    5.5900 C   0  0  0  0  0  0  0  0  0  0  0  0
   -6.6220  -44.2260    6.8150 C   0  0  0  0  0  0  0  0  0  0  0  0
   -3.1160  -44.5770    5.1460 H   0  0  0  0  0  0  0  0  0  0  0  0
   -4.9230  -43.2890    4.0200 H   0  0  0  0  0  0  0  0  0  0  0  0
   -7.1610  -43.1200    5.0600 H   0  0  0  0  0  0  0  0  0  0  0  0
   -7.6080  -44.1570    7.2720 H   0  0  0  0  0  0  0  0  0  0  0  0
   -5.0540  -46.8720   10.2770 H   0  0  0  0  0  0  0  0  0  0  0  0
   -6.8170  -45.4900    9.2160 H   0  0  0  0  0  0  0  0  0  0  0  0
  1  2  2  0  0  0  0
  2  3  1  0  0  0  0
  2  4  1  0  0  0  0
  4  5  1  0  0  0  0
  4 12  2  0  0  0  0
  5  6  1  0  0  0  0
  6  7  2  0  0  0  0
  6 11  1  0  0  0  0
  7  8  1  0  0  0  0
  7 21  1  0  0  0  0
  8  9  2  0  0  0  0
  8 22  1  0  0  0  0
  9 10  1  0  0  0  0
  9 23  1  0  0  0  0
 10 11  2  0  0  0  0
 10 24  1  0  0  0  0
 11 12  1  0  0  0  0
 12 13  1  0  0  0  0
 13 25  1  0  0  0  0
 13 26  1  0  0  0  0
 13 14  1  0  0  0  0
 14 15  1  0  0  0  0
 14 27  1  0  0  0  0
 14 28  1  0  0  0  0
 15 16  1  0  0  0  0
 15 29  1  0  0  0  0
 15 30  1  0  0  0  0
 16 17  1  0  0  0  0
 17 20  2  0  0  0  0
 17 33  1  0  0  0  0
 18 19  2  0  0  0  0
 18 32  1  0  0  0  0
 18 43  1  0  0  0  0
 19 20  1  0  0  0  0
 19 42  1  0  0  0  0
 20 31  1  0  0  0  0
 32 33  2  0  0  0  0
 32 37  1  0  0  0  0
 33 34  1  0  0  0  0
 34 35  2  0  0  0  0
 34 38  1  0  0  0  0
 35 36  1  0  0  0  0
 35 39  1  0  0  0  0
 36 37  2  0  0  0  0
 36 40  1  0  0  0  0
 37 41  1  0  0  0  0
M  CHG  1   3  -1
M  END
$$$$
