43
 OpenBabel02232411163D
Structure written by MMmdl.
 44 47  0  0  0  0  0  0  0  0999 V2000
    3.9360  -48.9990    7.2060 O   0  0  0  0  0  0  0  0  0  0  0  0
    3.5410  -50.0500    6.6850 C   0  0  0  0  0  0  0  0  0  0  0  0
    4.2520  -50.9950    6.2880 O   0  5  0  0  0  0  0  0  0  0  0  0
    2.0250  -50.2420    6.5030 C   0  0  0  0  0  0  0  0  0  0  0  0
    0.0530  -51.4080    6.5490 C   0  0  0  0  0  0  0  0  0  0  0  0
   -0.9710  -52.3550    6.7260 C   0  0  0  0  0  0  0  0  0  0  0  0
   -2.2650  -51.9630    6.4160 C   0  0  0  0  0  0  0  0  0  0  0  0
   -2.5450  -50.6630    5.9280 C   0  0  0  0  0  0  0  0  0  0  0  0
   -1.5380  -49.7260    5.7470 C   0  0  0  0  0  0  0  0  0  0  0  0
   -0.2170  -50.0780    6.0640 C   0  0  0  0  0  0  0  0  0  0  0  0
    1.0440  -49.3660    6.0570 C   0  0  0  0  0  0  0  0  0  0  0  0
    1.1560  -47.9200    5.7290 C   0  0  0  0  0  0  0  0  0  0  0  0
    0.8060  -47.0860    6.9810 C   0  0  0  0  0  0  0  0  0  0  0  0
   -0.1270  -45.9200    6.6740 C   0  0  0  0  0  0  0  0  0  0  0  0
   -1.3910  -46.4390    6.1310 O   0  0  0  0  0  0  0  0  0  0  0  0
   -2.4560  -46.4020    7.0180 C   0  0  0  0  0  0  0  0  0  0  0  0
   -3.6170  -47.3100    8.9300 C   0  0  0  0  0  0  0  0  0  0  0  0
   -2.5420  -47.3540    8.0840 C   0  0  0  0  0  0  0  0  0  0  0  0
   -0.7650  -53.3570    7.1020 H   0  0  0  0  0  0  0  0  0  0  0  0
   -3.0930  -52.6590    6.5540 H   0  0  0  0  0  0  0  0  0  0  0  0
   -3.5790  -50.4040    5.6990 H   0  0  0  0  0  0  0  0  0  0  0  0
   -1.7740  -48.7250    5.3760 H   0  0  0  0  0  0  0  0  0  0  0  0
    0.4220  -47.6670    4.9210 H   0  0  0  0  0  0  0  0  0  0  0  0
    2.1770  -47.6560    5.3710 H   0  0  0  0  0  0  0  0  0  0  0  0
    1.7350  -46.7000    7.4520 H   0  0  0  0  0  0  0  0  0  0  0  0
    0.2810  -47.7420    7.7140 H   0  0  0  0  0  0  0  0  0  0  0  0
    0.2260  -45.2970    5.8280 H   0  0  0  0  0  0  0  0  0  0  0  0
   -0.3500  -45.3090    7.5720 H   0  0  0  0  0  0  0  0  0  0  0  0
   -1.7740  -48.1210    8.1810 H   0  0  0  0  0  0  0  0  0  0  0  0
   -3.4440  -45.4730    6.7880 C   0  0  0  0  0  0  0  0  0  0  0  0
   -3.7230  -48.0210    9.7530 H   0  0  0  0  0  0  0  0  0  0  0  0
   -4.5730  -45.4280    7.6610 C   0  0  0  0  0  0  0  0  0  0  0  0
   -4.6520  -46.3340    8.7510 C   0  0  0  0  0  0  0  0  0  0  0  0
   -5.7720  -46.2630    9.6340 C   0  0  0  0  0  0  0  0  0  0  0  0
   -6.7600  -45.3310    9.4320 C   0  0  0  0  0  0  0  0  0  0  0  0
   -6.6930  -44.4410    8.3220 C   0  0  0  0  0  0  0  0  0  0  0  0
   -5.6310  -44.4890    7.4550 C   0  0  0  0  0  0  0  0  0  0  0  0
   -5.8430  -46.9720   10.4600 H   0  0  0  0  0  0  0  0  0  0  0  0
   -7.6100  -45.2740   10.1070 H   0  0  0  0  0  0  0  0  0  0  0  0
   -7.5000  -43.7290    8.1610 H   0  0  0  0  0  0  0  0  0  0  0  0
   -5.5860  -43.8190    6.5950 H   0  0  0  0  0  0  0  0  0  0  0  0
   -3.3950  -44.7820    5.9490 H   0  0  0  0  0  0  0  0  0  0  0  0
    1.4310  -51.4860    6.8030 N   0  0  0  0  0  0  0  0  0  0  0  0
    1.8910  -52.3290    7.1310 H   0  0  0  0  0  0  0  0  0  0  0  0
  1  2  2  0  0  0  0
  2  3  1  0  0  0  0
  2  4  1  0  0  0  0
  4 11  2  0  0  0  0
  4 43  1  0  0  0  0
  5  6  2  0  0  0  0
  5 10  1  0  0  0  0
  5 43  1  0  0  0  0
  6  7  1  0  0  0  0
  6 19  1  0  0  0  0
  7  8  2  0  0  0  0
  7 20  1  0  0  0  0
  8  9  1  0  0  0  0
  8 21  1  0  0  0  0
  9 10  2  0  0  0  0
  9 22  1  0  0  0  0
 10 11  1  0  0  0  0
 11 12  1  0  0  0  0
 12 23  1  0  0  0  0
 12 24  1  0  0  0  0
 12 13  1  0  0  0  0
 13 14  1  0  0  0  0
 13 25  1  0  0  0  0
 13 26  1  0  0  0  0
 14 15  1  0  0  0  0
 14 27  1  0  0  0  0
 14 28  1  0  0  0  0
 15 16  1  0  0  0  0
 16 18  2  0  0  0  0
 16 30  1  0  0  0  0
 17 18  1  0  0  0  0
 17 31  1  0  0  0  0
 17 33  2  0  0  0  0
 18 29  1  0  0  0  0
 30 32  2  0  0  0  0
 30 42  1  0  0  0  0
 32 33  1  0  0  0  0
 32 37  1  0  0  0  0
 33 34  1  0  0  0  0
 34 35  2  0  0  0  0
 34 38  1  0  0  0  0
 35 36  1  0  0  0  0
 35 39  1  0  0  0  0
 36 37  2  0  0  0  0
 36 40  1  0  0  0  0
 37 41  1  0  0  0  0
 43 44  1  0  0  0  0
M  CHG  1   3  -1
M  END
$$$$
