p38a_2u
 OpenBabel02232411163D
Structure written by MMmdl.
 64 68  0  0  0  0  0  0  0  0999 V2000
   38.2900   36.5630   17.1140 C   0  0  0  0  0  0  0  0  0  0  0  0
   34.5640   35.1000   21.1550 C   0  0  0  0  0  0  0  0  0  0  0  0
   37.4910   36.1050   18.1580 C   0  0  0  0  0  0  0  0  0  0  0  0
   34.0240   39.1440   23.7580 C   0  0  0  0  0  0  0  0  0  0  0  0
   34.6460   37.9590   21.3530 C   0  0  0  0  0  0  0  0  0  0  0  0
   35.0310   37.3320   20.1190 C   0  0  0  0  0  0  0  0  0  0  0  0
   37.6550   36.7410   15.8770 C   0  0  0  0  0  0  0  0  0  0  0  0
   36.3050   36.4610   15.6550 C   0  0  0  0  0  0  0  0  0  0  0  0
   35.5270   35.9890   16.7170 C   0  0  0  0  0  0  0  0  0  0  0  0
   34.3100   37.1710   22.4970 C   0  0  0  0  0  0  0  0  0  0  0  0
   34.6020   39.3720   21.5010 C   0  0  0  0  0  0  0  0  0  0  0  0
   35.0240   35.9810   20.0530 C   0  0  0  0  0  0  0  0  0  0  0  0
   36.1260   35.8050   17.9660 C   0  0  0  0  0  0  0  0  0  0  0  0
   38.0090   35.9510   19.3700 F   0  0  0  0  0  0  0  0  0  0  0  0
   35.3860   35.1750   18.9740 O   0  0  0  0  0  0  0  0  0  0  0  0
   34.3050   39.9800   22.6570 N   0  0  0  0  0  0  0  0  0  0  0  0
   34.4260   33.8980   21.0620 O   0  0  0  0  0  0  0  0  0  0  0  0
   34.2690   35.7650   22.4010 N   0  0  0  0  0  0  0  0  0  0  0  0
   34.0220   37.7640   23.6970 N   0  0  0  0  0  0  0  0  0  0  0  0
   33.6670   39.7560   24.9370 N   0  0  0  0  0  0  0  0  0  0  0  0
   39.3450   36.8080   17.2630 H   0  0  0  0  0  0  0  0  0  0  0  0
   35.3260   37.9680   19.2830 H   0  0  0  0  0  0  0  0  0  0  0  0
   35.8450   36.6210   14.6770 H   0  0  0  0  0  0  0  0  0  0  0  0
   34.4620   35.7840   16.5660 H   0  0  0  0  0  0  0  0  0  0  0  0
   34.8170   40.0190   20.6340 H   0  0  0  0  0  0  0  0  0  0  0  0
   33.7680   40.7870   25.0260 H   0  0  0  0  0  0  0  0  0  0  0  0
   38.3670   37.2420   14.8710 F   0  0  0  0  0  0  0  0  0  0  0  0
   32.4510   39.0330   28.4830 C   0  0  0  0  0  0  0  0  0  0  0  0
   32.4920   39.6930   27.0990 C   0  0  0  0  0  0  0  0  0  0  0  0
   33.5680   39.0100   26.2290 C   0  0  0  0  0  0  0  0  0  0  0  0
   34.9310   39.0170   26.9550 C   0  0  0  0  0  0  0  0  0  0  0  0
   34.7800   38.3930   28.3480 C   0  0  0  0  0  0  0  0  0  0  0  0
   33.7480   39.0460   29.1220 O   0  0  0  0  0  0  0  0  0  0  0  0
   32.0930   37.9810   28.4100 H   0  0  0  0  0  0  0  0  0  0  0  0
   31.8360   39.6330   29.1930 H   0  0  0  0  0  0  0  0  0  0  0  0
   32.7290   40.7790   27.2080 H   0  0  0  0  0  0  0  0  0  0  0  0
   31.4960   39.5980   26.6040 H   0  0  0  0  0  0  0  0  0  0  0  0
   33.2580   37.9490   26.0150 H   0  0  0  0  0  0  0  0  0  0  0  0
   35.6740   38.4280   26.3670 H   0  0  0  0  0  0  0  0  0  0  0  0
   35.3040   40.0650   27.0450 H   0  0  0  0  0  0  0  0  0  0  0  0
   34.5430   37.3070   28.2680 H   0  0  0  0  0  0  0  0  0  0  0  0
   35.6890   38.5720   28.9670 H   0  0  0  0  0  0  0  0  0  0  0  0
   32.0300   34.0210   25.0170 C   0  0  0  0  0  0  0  0  0  0  0  0
   32.4190   35.1200   24.0080 C   0  0  0  0  0  0  0  0  0  0  0  0
   33.8690   34.8800   23.5570 C   0  0  0  0  0  0  0  0  0  0  0  0
   34.8020   35.0110   24.7730 C   0  0  0  0  0  0  0  0  0  0  0  0
   34.4210   33.9320   25.8120 C   0  0  0  0  0  0  0  0  0  0  0  0
   32.0070   33.0290   24.4920 H   0  0  0  0  0  0  0  0  0  0  0  0
   31.0050   34.2680   25.4070 H   0  0  0  0  0  0  0  0  0  0  0  0
   32.3250   36.1200   24.5000 H   0  0  0  0  0  0  0  0  0  0  0  0
   31.7170   35.0830   23.1440 H   0  0  0  0  0  0  0  0  0  0  0  0
   33.9530   33.8180   23.1710 H   0  0  0  0  0  0  0  0  0  0  0  0
   35.8640   34.8670   24.4760 H   0  0  0  0  0  0  0  0  0  0  0  0
   34.6960   36.0190   25.2470 H   0  0  0  0  0  0  0  0  0  0  0  0
   34.7000   32.9240   25.3990 H   0  0  0  0  0  0  0  0  0  0  0  0
   35.0210   34.1380   26.7390 H   0  0  0  0  0  0  0  0  0  0  0  0
   32.9730   33.9780   26.1790 N   0  0  0  0  0  0  0  0  0  0  0  0
   32.4600   33.0780   27.5570 S   0  0  0  0  0  0  0  0  0  0  0  0
   31.2050   32.3760   27.2100 O   0  0  0  0  0  0  0  0  0  0  0  0
   32.2670   34.0050   28.6850 O   0  0  0  0  0  0  0  0  0  0  0  0
   33.7120   31.9340   27.9270 C   0  0  0  0  0  0  0  0  0  0  0  0
   34.6380   32.4160   28.3360 H   0  0  0  0  0  0  0  0  0  0  0  0
   33.3770   31.2040   28.7170 H   0  0  0  0  0  0  0  0  0  0  0  0
   34.0100   31.3090   27.0460 H   0  0  0  0  0  0  0  0  0  0  0  0
  1  3  2  0  0  0  0
  1  7  1  0  0  0  0
  1 21  1  0  0  0  0
  2 12  1  0  0  0  0
  2 17  2  0  0  0  0
  2 18  1  0  0  0  0
  3 13  1  0  0  0  0
  3 14  1  0  0  0  0
  4 16  2  0  0  0  0
  4 19  1  0  0  0  0
  4 20  1  0  0  0  0
  5  6  1  0  0  0  0
  5 10  1  0  0  0  0
  5 11  2  0  0  0  0
  6 12  2  0  0  0  0
  6 22  1  0  0  0  0
  7  8  2  0  0  0  0
  7 27  1  0  0  0  0
  8  9  1  0  0  0  0
  8 23  1  0  0  0  0
  9 13  2  0  0  0  0
  9 24  1  0  0  0  0
 10 18  1  0  0  0  0
 10 19  2  0  0  0  0
 11 16  1  0  0  0  0
 11 25  1  0  0  0  0
 12 15  1  0  0  0  0
 13 15  1  0  0  0  0
 18 45  1  0  0  0  0
 20 26  1  0  0  0  0
 20 30  1  0  0  0  0
 28 29  1  0  0  0  0
 28 33  1  0  0  0  0
 28 34  1  0  0  0  0
 28 35  1  0  0  0  0
 29 30  1  0  0  0  0
 29 36  1  0  0  0  0
 29 37  1  0  0  0  0
 30 31  1  0  0  0  0
 30 38  1  0  0  0  0
 31 32  1  0  0  0  0
 31 39  1  0  0  0  0
 31 40  1  0  0  0  0
 32 33  1  0  0  0  0
 32 41  1  0  0  0  0
 32 42  1  0  0  0  0
 43 44  1  0  0  0  0
 43 48  1  0  0  0  0
 43 49  1  0  0  0  0
 43 57  1  0  0  0  0
 44 45  1  0  0  0  0
 44 50  1  0  0  0  0
 44 51  1  0  0  0  0
 45 46  1  0  0  0  0
 45 52  1  0  0  0  0
 46 47  1  0  0  0  0
 46 53  1  0  0  0  0
 46 54  1  0  0  0  0
 47 55  1  0  0  0  0
 47 56  1  0  0  0  0
 47 57  1  0  0  0  0
 57 58  1  0  0  0  0
 58 59  2  0  0  0  0
 58 60  2  0  0  0  0
 58 61  1  0  0  0  0
 61 62  1  0  0  0  0
 61 63  1  0  0  0  0
 61 64  1  0  0  0  0
M  END
$$$$
