jmc_28
 OpenBabel02232411173D
Structure written by MMmdl.
 39 41  0  0  1  0  0  0  0  0999 V2000
   -1.5510   21.5170  -27.5820 C   0  0  0  0  0  0  0  0  0  0  0  0
   -2.8270   21.0080  -27.8380 C   0  0  0  0  0  0  0  0  0  0  0  0
   -3.6030   21.5720  -28.8510 C   0  0  0  0  0  0  0  0  0  0  0  0
   -3.1350   22.6470  -29.6250 C   0  0  0  0  0  0  0  0  0  0  0  0
   -1.8590   23.1440  -29.3330 C   0  0  0  0  0  0  0  0  0  0  0  0
   -1.0630   22.5920  -28.3280 C   0  0  0  0  0  0  0  0  0  0  0  0
   -1.2260   24.4760  -30.2080 Cl  0  0  0  0  0  0  0  0  0  0  0  0
   -3.9950   23.1560  -30.7450 C   0  0  0  0  0  0  0  0  0  0  0  0
   -4.4030   22.4340  -31.6290 O   0  0  0  0  0  0  0  0  0  0  0  0
   -4.3050   24.5280  -30.6450 N   0  0  0  0  0  0  0  0  0  0  0  0
   -5.1570   25.2700  -31.5130 C   0  0  0  0  0  0  0  0  0  0  0  0
   -5.8300   24.7070  -32.6080 C   0  0  0  0  0  0  0  0  0  0  0  0
   -6.6880   25.5270  -33.3550 C   0  0  0  0  0  0  0  0  0  0  0  0
   -6.8930   26.8400  -33.0840 N   0  0  0  0  0  0  0  0  0  0  0  0
   -6.2120   27.3850  -32.0120 C   0  0  0  0  0  0  0  0  0  0  0  0
   -5.3350   26.6370  -31.2130 C   0  0  0  0  0  0  0  0  0  0  0  0
   -6.5000   28.7570  -31.7750 N   0  0  0  0  0  0  0  0  0  0  0  0
   -5.7540   29.6370  -30.9450 C   0  0  0  0  0  0  0  0  0  0  0  0
   -4.7850   29.2340  -30.3250 O   0  0  0  0  0  0  0  0  0  0  0  0
   -6.2860   31.0300  -30.9030 C   0  0  1  0  0  0  0  0  0  0  0  0
   -5.9410   31.9290  -29.7180 C   0  0  0  0  0  0  0  0  0  0  0  0
   -5.3500   32.2420  -31.0740 C   0  0  1  0  0  0  0  0  0  0  0  0
   -3.8790   32.0800  -31.3470 C   0  0  0  0  0  0  0  0  0  0  0  0
   -5.1610   20.9310  -29.1650 Cl  0  0  0  0  0  0  0  0  0  0  0  0
   -7.2940   31.1550  -31.3340 H   0  0  0  0  0  0  0  0  0  0  0  0
   -5.7950   33.0910  -31.6220 H   0  0  0  0  0  0  0  0  0  0  0  0
   -0.9320   21.0760  -26.7920 H   0  0  0  0  0  0  0  0  0  0  0  0
   -3.2010   20.1800  -27.2340 H   0  0  0  0  0  0  0  0  0  0  0  0
   -0.0690   22.9930  -28.1090 H   0  0  0  0  0  0  0  0  0  0  0  0
   -3.8950   25.0570  -29.8540 H   0  0  0  0  0  0  0  0  0  0  0  0
   -5.7180   23.6530  -32.8780 H   0  0  0  0  0  0  0  0  0  0  0  0
   -7.2480   25.1150  -34.2110 H   0  0  0  0  0  0  0  0  0  0  0  0
   -4.8020   27.1040  -30.3780 H   0  0  0  0  0  0  0  0  0  0  0  0
   -7.3920   29.1120  -32.1900 H   0  0  0  0  0  0  0  0  0  0  0  0
   -6.7370   32.5820  -29.3320 H   0  0  0  0  0  0  0  0  0  0  0  0
   -5.2890   31.5470  -28.9220 H   0  0  0  0  0  0  0  0  0  0  0  0
   -3.3450   33.0050  -31.0230 H   0  0  0  0  0  0  0  0  0  0  0  0
   -3.4500   31.2180  -30.7810 H   0  0  0  0  0  0  0  0  0  0  0  0
   -3.7170   31.9100  -32.4340 H   0  0  0  0  0  0  0  0  0  0  0  0
  1  2  2  0  0  0  0
  1  6  1  0  0  0  0
  1 27  1  0  0  0  0
  2  3  1  0  0  0  0
  2 28  1  0  0  0  0
  3  4  2  0  0  0  0
  3 24  1  0  0  0  0
  4  5  1  0  0  0  0
  4  8  1  0  0  0  0
  5  6  2  0  0  0  0
  5  7  1  0  0  0  0
  6 29  1  0  0  0  0
  8  9  2  0  0  0  0
  8 10  1  0  0  0  0
 10 11  1  0  0  0  0
 10 30  1  0  0  0  0
 11 12  2  0  0  0  0
 11 16  1  0  0  0  0
 12 13  1  0  0  0  0
 12 31  1  0  0  0  0
 13 14  2  0  0  0  0
 13 32  1  0  0  0  0
 14 15  1  0  0  0  0
 15 16  2  0  0  0  0
 15 17  1  0  0  0  0
 16 33  1  0  0  0  0
 17 18  1  0  0  0  0
 17 34  1  0  0  0  0
 18 19  2  0  0  0  0
 18 20  1  0  0  0  0
 20 21  1  0  0  0  0
 20 22  1  0  0  0  0
 20 25  1  6  0  0  0
 21 22  1  0  0  0  0
 21 35  1  0  0  0  0
 21 36  1  0  0  0  0
 22 23  1  0  0  0  0
 22 26  1  6  0  0  0
 23 37  1  0  0  0  0
 23 38  1  0  0  0  0
 23 39  1  0  0  0  0
M  END
$$$$
