p38a_3fln
 OpenBabel02232411163D
Structure written by MMmdl.
 46 49  0  0  0  0  0  0  0  0999 V2000
   32.1650   39.6190   27.0510 C   0  0  0  0  0  0  0  0  0  0  0  0
   33.0680   40.3720   28.0360 C   0  0  0  0  0  0  0  0  0  0  0  0
   34.8720   38.8080   27.7540 C   0  0  0  0  0  0  0  0  0  0  0  0
   34.0480   37.9180   26.8250 C   0  0  0  0  0  0  0  0  0  0  0  0
   38.3080   36.5850   17.1010 C   0  0  0  0  0  0  0  0  0  0  0  0
   34.0180   39.5080   28.6910 O   0  0  0  0  0  0  0  0  0  0  0  0
   34.4740   34.9970   21.0590 C   0  0  0  0  0  0  0  0  0  0  0  0
   37.5150   36.1060   18.1400 C   0  0  0  0  0  0  0  0  0  0  0  0
   33.8560   38.9670   23.7590 C   0  0  0  0  0  0  0  0  0  0  0  0
   32.9420   38.7000   26.0860 C   0  0  0  0  0  0  0  0  0  0  0  0
   34.6290   37.8650   21.3480 C   0  0  0  0  0  0  0  0  0  0  0  0
   35.0750   37.2530   20.1260 C   0  0  0  0  0  0  0  0  0  0  0  0
   37.6730   36.7630   15.8650 C   0  0  0  0  0  0  0  0  0  0  0  0
   36.3270   36.4660   15.6390 C   0  0  0  0  0  0  0  0  0  0  0  0
   35.5550   35.9690   16.6940 C   0  0  0  0  0  0  0  0  0  0  0  0
   34.1380   37.0530   22.4140 C   0  0  0  0  0  0  0  0  0  0  0  0
   34.6670   39.2670   21.5770 C   0  0  0  0  0  0  0  0  0  0  0  0
   35.0210   35.9060   20.0170 C   0  0  0  0  0  0  0  0  0  0  0  0
   36.1570   35.7780   17.9410 C   0  0  0  0  0  0  0  0  0  0  0  0
   33.5060   34.8450   23.3850 C   0  0  0  0  0  0  0  0  0  0  0  0
   38.0320   35.9550   19.3530 F   0  0  0  0  0  0  0  0  0  0  0  0
   38.3790   37.2820   14.8630 F   0  0  0  0  0  0  0  0  0  0  0  0
   35.4300   35.1200   18.9410 O   0  0  0  0  0  0  0  0  0  0  0  0
   34.3060   39.8320   22.7390 N   0  0  0  0  0  0  0  0  0  0  0  0
   34.3730   33.7930   20.9590 O   0  0  0  0  0  0  0  0  0  0  0  0
   34.0470   35.6590   22.2610 N   0  0  0  0  0  0  0  0  0  0  0  0
   33.7510   37.5950   23.6120 N   0  0  0  0  0  0  0  0  0  0  0  0
   33.4910   39.5230   24.9590 N   0  0  0  0  0  0  0  0  0  0  0  0
   31.4420   38.9800   27.6160 H   0  0  0  0  0  0  0  0  0  0  0  0
   31.5760   40.3650   26.4620 H   0  0  0  0  0  0  0  0  0  0  0  0
   33.6280   41.1820   27.5180 H   0  0  0  0  0  0  0  0  0  0  0  0
   32.4770   40.7730   28.8920 H   0  0  0  0  0  0  0  0  0  0  0  0
   35.5160   38.2040   28.4330 H   0  0  0  0  0  0  0  0  0  0  0  0
   35.4630   39.5560   27.1780 H   0  0  0  0  0  0  0  0  0  0  0  0
   34.7250   37.4160   26.0910 H   0  0  0  0  0  0  0  0  0  0  0  0
   33.5470   37.1090   27.4180 H   0  0  0  0  0  0  0  0  0  0  0  0
   39.3590   36.8460   17.2530 H   0  0  0  0  0  0  0  0  0  0  0  0
   32.2160   37.9560   25.6420 H   0  0  0  0  0  0  0  0  0  0  0  0
   35.4500   37.9010   19.3320 H   0  0  0  0  0  0  0  0  0  0  0  0
   35.8660   36.6310   14.6630 H   0  0  0  0  0  0  0  0  0  0  0  0
   34.4950   35.7470   16.5380 H   0  0  0  0  0  0  0  0  0  0  0  0
   35.0030   39.9440   20.7730 H   0  0  0  0  0  0  0  0  0  0  0  0
   34.1290   35.0000   24.3070 H   0  0  0  0  0  0  0  0  0  0  0  0
   32.4520   35.1630   23.6140 H   0  0  0  0  0  0  0  0  0  0  0  0
   33.5100   33.7580   23.1150 H   0  0  0  0  0  0  0  0  0  0  0  0
   33.5890   40.5450   25.1090 H   0  0  0  0  0  0  0  0  0  0  0  0
  1  2  1  0  0  0  0
  1 10  1  0  0  0  0
  1 29  1  0  0  0  0
  1 30  1  0  0  0  0
  2  6  1  0  0  0  0
  2 31  1  0  0  0  0
  2 32  1  0  0  0  0
  3  4  1  0  0  0  0
  3  6  1  0  0  0  0
  3 33  1  0  0  0  0
  3 34  1  0  0  0  0
  4 10  1  0  0  0  0
  4 35  1  0  0  0  0
  4 36  1  0  0  0  0
  5  8  2  0  0  0  0
  5 13  1  0  0  0  0
  5 37  1  0  0  0  0
  7 18  1  0  0  0  0
  7 25  2  0  0  0  0
  7 26  1  0  0  0  0
  8 19  1  0  0  0  0
  8 21  1  0  0  0  0
  9 24  2  0  0  0  0
  9 27  1  0  0  0  0
  9 28  1  0  0  0  0
 10 28  1  0  0  0  0
 10 38  1  0  0  0  0
 11 12  1  0  0  0  0
 11 16  1  0  0  0  0
 11 17  2  0  0  0  0
 12 18  2  0  0  0  0
 12 39  1  0  0  0  0
 13 14  2  0  0  0  0
 13 22  1  0  0  0  0
 14 15  1  0  0  0  0
 14 40  1  0  0  0  0
 15 19  2  0  0  0  0
 15 41  1  0  0  0  0
 16 26  1  0  0  0  0
 16 27  2  0  0  0  0
 17 24  1  0  0  0  0
 17 42  1  0  0  0  0
 18 23  1  0  0  0  0
 19 23  1  0  0  0  0
 20 26  1  0  0  0  0
 20 43  1  0  0  0  0
 20 44  1  0  0  0  0
 20 45  1  0  0  0  0
 28 46  1  0  0  0  0
M  END
$$$$
