18631-1
 OpenBabel02232411163D
Structure written by MMmdl.
 42 43  0  0  0  0  0  0  0  0999 V2000
   23.2430   10.8400   29.0660 C   0  0  0  0  0  0  0  0  0  0  0  0
   23.4730   11.0930   30.5420 C   0  0  0  0  0  0  0  0  0  0  0  0
   22.1900   11.1910   31.2670 O   0  0  0  0  0  0  0  0  0  0  0  0
   21.5250   10.0600   31.5970 C   0  0  0  0  0  0  0  0  0  0  0  0
   21.9950    8.8630   31.1810 N   0  0  0  0  0  0  0  0  0  0  0  0
   21.2460    7.7360   31.4850 C   0  0  0  0  0  0  0  0  0  0  0  0
   20.0820    7.7920   32.2460 C   0  0  0  0  0  0  0  0  0  0  0  0
   19.6100    9.0510   32.7040 C   0  0  0  0  0  0  0  0  0  0  0  0
   18.4650    9.1110   33.4570 N   0  0  0  0  0  0  0  0  0  0  0  0
   20.3300   10.2400   32.3570 C   0  0  0  0  0  0  0  0  0  0  0  0
   19.9150   11.5460   32.6890 C   0  0  0  0  0  0  0  0  0  0  0  0
   19.6220   12.6450   32.9190 N   0  0  0  0  0  0  0  0  0  0  0  0
   21.8090    6.5740   30.9150 N   0  0  0  0  0  0  0  0  0  0  0  0
   21.2190    5.2890   30.8450 C   0  0  0  0  0  0  0  0  0  0  0  0
   20.1470    5.0380   31.3510 O   0  0  0  0  0  0  0  0  0  0  0  0
   22.0270    4.2990   30.0170 C   0  0  0  0  0  0  0  0  0  0  0  0
   23.3450    3.9540   30.6420 C   0  0  0  0  0  0  0  0  0  0  0  0
   24.4880    4.7720   30.4290 C   0  0  0  0  0  0  0  0  0  0  0  0
   24.2330    5.8480   29.5940 O   0  0  0  0  0  0  0  0  0  0  0  0
   25.2700    6.8510   29.4290 C   0  0  0  0  0  0  0  0  0  0  0  0
   25.7240    4.4780   31.0040 C   0  0  0  0  0  0  0  0  0  0  0  0
   25.8390    3.3400   31.8110 C   0  0  0  0  0  0  0  0  0  0  0  0
   24.7370    2.5120   32.0220 C   0  0  0  0  0  0  0  0  0  0  0  0
   23.5010    2.8140   31.4340 C   0  0  0  0  0  0  0  0  0  0  0  0
   22.8510    9.8120   28.8890 H   0  0  0  0  0  0  0  0  0  0  0  0
   22.5290   11.5760   28.6340 H   0  0  0  0  0  0  0  0  0  0  0  0
   24.2160   10.9390   28.5230 H   0  0  0  0  0  0  0  0  0  0  0  0
   23.8660   12.1200   30.7360 H   0  0  0  0  0  0  0  0  0  0  0  0
   24.1060   10.3050   31.0100 H   0  0  0  0  0  0  0  0  0  0  0  0
   19.5160    6.8890   32.4830 H   0  0  0  0  0  0  0  0  0  0  0  0
   17.9580    8.2470   33.7290 H   0  0  0  0  0  0  0  0  0  0  0  0
   18.0750   10.0030   33.7630 H   0  0  0  0  0  0  0  0  0  0  0  0
   22.7350    6.7180   30.4410 H   0  0  0  0  0  0  0  0  0  0  0  0
   21.4190    3.3670   29.8830 H   0  0  0  0  0  0  0  0  0  0  0  0
   22.2080    4.7530   29.0040 H   0  0  0  0  0  0  0  0  0  0  0  0
   25.5540    7.2780   30.4160 H   0  0  0  0  0  0  0  0  0  0  0  0
   26.1400    6.4080   28.8990 H   0  0  0  0  0  0  0  0  0  0  0  0
   24.7490    7.6080   28.7990 H   0  0  0  0  0  0  0  0  0  0  0  0
   26.6020    5.1040   30.8360 H   0  0  0  0  0  0  0  0  0  0  0  0
   26.8040    3.1010   32.2700 H   0  0  0  0  0  0  0  0  0  0  0  0
   24.8380    1.6190   32.6460 H   0  0  0  0  0  0  0  0  0  0  0  0
   22.6580    2.1380   31.6060 H   0  0  0  0  0  0  0  0  0  0  0  0
  1  2  1  0  0  0  0
  1 25  1  0  0  0  0
  1 26  1  0  0  0  0
  1 27  1  0  0  0  0
  2  3  1  0  0  0  0
  2 28  1  0  0  0  0
  2 29  1  0  0  0  0
  3  4  1  0  0  0  0
  4 10  2  0  0  0  0
  4  5  1  0  0  0  0
  5  6  2  0  0  0  0
  6  7  1  0  0  0  0
  6 13  1  0  0  0  0
  7  8  2  0  0  0  0
  7 30  1  0  0  0  0
  8  9  1  0  0  0  0
  8 10  1  0  0  0  0
  9 31  1  0  0  0  0
  9 32  1  0  0  0  0
 10 11  1  0  0  0  0
 11 12  3  0  0  0  0
 13 14  1  0  0  0  0
 13 33  1  0  0  0  0
 14 15  2  0  0  0  0
 14 16  1  0  0  0  0
 16 17  1  0  0  0  0
 16 34  1  0  0  0  0
 16 35  1  0  0  0  0
 17 24  2  0  0  0  0
 17 18  1  0  0  0  0
 18 19  1  0  0  0  0
 18 21  2  0  0  0  0
 19 20  1  0  0  0  0
 20 36  1  0  0  0  0
 20 37  1  0  0  0  0
 20 38  1  0  0  0  0
 21 22  1  0  0  0  0
 21 39  1  0  0  0  0
 22 23  2  0  0  0  0
 22 40  1  0  0  0  0
 23 24  1  0  0  0  0
 23 41  1  0  0  0  0
 24 42  1  0  0  0  0
M  END
$$$$
