p38a_2o
 OpenBabel02232411163D
Structure written by MMmdl.
 55 58  0  0  0  0  0  0  0  0999 V2000
   38.2860   36.5340   17.1560 C   0  0  0  0  0  0  0  0  0  0  0  0
   34.5770   35.1120   21.2430 C   0  0  0  0  0  0  0  0  0  0  0  0
   37.5030   36.0760   18.2110 C   0  0  0  0  0  0  0  0  0  0  0  0
   34.0390   39.2430   23.7080 C   0  0  0  0  0  0  0  0  0  0  0  0
   34.6600   37.9950   21.3290 C   0  0  0  0  0  0  0  0  0  0  0  0
   35.0390   37.3130   20.1220 C   0  0  0  0  0  0  0  0  0  0  0  0
   37.6400   36.6870   15.9210 C   0  0  0  0  0  0  0  0  0  0  0  0
   36.2930   36.3790   15.7130 C   0  0  0  0  0  0  0  0  0  0  0  0
   35.5310   35.9070   16.7860 C   0  0  0  0  0  0  0  0  0  0  0  0
   34.3240   37.2440   22.4930 C   0  0  0  0  0  0  0  0  0  0  0  0
   34.6170   39.4100   21.4440 C   0  0  0  0  0  0  0  0  0  0  0  0
   35.0380   35.9610   20.1110 C   0  0  0  0  0  0  0  0  0  0  0  0
   36.1420   35.7470   18.0330 C   0  0  0  0  0  0  0  0  0  0  0  0
   38.0320   35.9480   19.4210 F   0  0  0  0  0  0  0  0  0  0  0  0
   35.4210   35.1260   19.0630 O   0  0  0  0  0  0  0  0  0  0  0  0
   34.3250   40.0470   22.5880 N   0  0  0  0  0  0  0  0  0  0  0  0
   34.4570   33.9080   21.2150 O   0  0  0  0  0  0  0  0  0  0  0  0
   34.2840   35.8370   22.4540 N   0  0  0  0  0  0  0  0  0  0  0  0
   34.0400   37.8620   23.6830 N   0  0  0  0  0  0  0  0  0  0  0  0
   33.6840   39.8730   24.8780 N   0  0  0  0  0  0  0  0  0  0  0  0
   39.3380   36.8020   17.2930 H   0  0  0  0  0  0  0  0  0  0  0  0
   35.3290   37.9170   19.2590 H   0  0  0  0  0  0  0  0  0  0  0  0
   35.8230   36.5200   14.7370 H   0  0  0  0  0  0  0  0  0  0  0  0
   34.4680   35.6860   16.6460 H   0  0  0  0  0  0  0  0  0  0  0  0
   34.8250   40.0380   20.5610 H   0  0  0  0  0  0  0  0  0  0  0  0
   33.7670   40.9030   24.9610 H   0  0  0  0  0  0  0  0  0  0  0  0
   38.3360   37.1920   14.9060 F   0  0  0  0  0  0  0  0  0  0  0  0
   32.2190   39.0640   28.3120 C   0  0  0  0  0  0  0  0  0  0  0  0
   32.3200   39.7220   26.9290 C   0  0  0  0  0  0  0  0  0  0  0  0
   33.5250   39.1320   26.1660 C   0  0  0  0  0  0  0  0  0  0  0  0
   34.8120   39.2650   27.0080 C   0  0  0  0  0  0  0  0  0  0  0  0
   34.5960   38.6420   28.3920 C   0  0  0  0  0  0  0  0  0  0  0  0
   33.4450   39.2080   29.0620 O   0  0  0  0  0  0  0  0  0  0  0  0
   31.9720   37.9810   28.2150 H   0  0  0  0  0  0  0  0  0  0  0  0
   31.4810   39.5930   28.9570 H   0  0  0  0  0  0  0  0  0  0  0  0
   32.4470   40.8240   27.0430 H   0  0  0  0  0  0  0  0  0  0  0  0
   31.3820   39.5310   26.3530 H   0  0  0  0  0  0  0  0  0  0  0  0
   33.3200   38.0470   25.9460 H   0  0  0  0  0  0  0  0  0  0  0  0
   35.6530   38.7420   26.4940 H   0  0  0  0  0  0  0  0  0  0  0  0
   35.0790   40.3450   27.1120 H   0  0  0  0  0  0  0  0  0  0  0  0
   34.4580   37.5390   28.3130 H   0  0  0  0  0  0  0  0  0  0  0  0
   35.4260   38.9070   29.0880 H   0  0  0  0  0  0  0  0  0  0  0  0
   33.8120   35.0810   23.6710 C   0  0  0  0  0  0  0  0  0  0  0  0
   34.1810   34.0240   23.5760 H   0  0  0  0  0  0  0  0  0  0  0  0
   34.2730   35.5700   24.5790 H   0  0  0  0  0  0  0  0  0  0  0  0
   32.2860   35.1270   23.7700 C   0  0  0  0  0  0  0  0  0  0  0  0
   31.9730   36.2120   23.8410 H   0  0  0  0  0  0  0  0  0  0  0  0
   31.8240   34.7490   22.8180 H   0  0  0  0  0  0  0  0  0  0  0  0
   31.6000   34.2460   25.1450 S   0  0  0  0  0  0  0  0  0  0  0  0
   32.6320   33.9080   26.1470 O   0  0  0  0  0  0  0  0  0  0  0  0
   30.9510   33.0050   24.6570 O   0  0  0  0  0  0  0  0  0  0  0  0
   30.4280   35.3510   25.7820 C   0  0  0  0  0  0  0  0  0  0  0  0
   29.6630   35.6560   25.0190 H   0  0  0  0  0  0  0  0  0  0  0  0
   29.8510   34.9370   26.6520 H   0  0  0  0  0  0  0  0  0  0  0  0
   30.8890   36.3020   26.1630 H   0  0  0  0  0  0  0  0  0  0  0  0
  1  3  2  0  0  0  0
  1  7  1  0  0  0  0
  1 21  1  0  0  0  0
  2 12  1  0  0  0  0
  2 17  2  0  0  0  0
  2 18  1  0  0  0  0
  3 13  1  0  0  0  0
  3 14  1  0  0  0  0
  4 16  2  0  0  0  0
  4 19  1  0  0  0  0
  4 20  1  0  0  0  0
  5  6  1  0  0  0  0
  5 10  1  0  0  0  0
  5 11  2  0  0  0  0
  6 12  2  0  0  0  0
  6 22  1  0  0  0  0
  7  8  2  0  0  0  0
  7 27  1  0  0  0  0
  8  9  1  0  0  0  0
  8 23  1  0  0  0  0
  9 13  2  0  0  0  0
  9 24  1  0  0  0  0
 10 18  1  0  0  0  0
 10 19  2  0  0  0  0
 11 16  1  0  0  0  0
 11 25  1  0  0  0  0
 12 15  1  0  0  0  0
 13 15  1  0  0  0  0
 18 43  1  0  0  0  0
 20 26  1  0  0  0  0
 20 30  1  0  0  0  0
 28 29  1  0  0  0  0
 28 33  1  0  0  0  0
 28 34  1  0  0  0  0
 28 35  1  0  0  0  0
 29 30  1  0  0  0  0
 29 36  1  0  0  0  0
 29 37  1  0  0  0  0
 30 31  1  0  0  0  0
 30 38  1  0  0  0  0
 31 32  1  0  0  0  0
 31 39  1  0  0  0  0
 31 40  1  0  0  0  0
 32 33  1  0  0  0  0
 32 41  1  0  0  0  0
 32 42  1  0  0  0  0
 43 44  1  0  0  0  0
 43 45  1  0  0  0  0
 43 46  1  0  0  0  0
 46 47  1  0  0  0  0
 46 48  1  0  0  0  0
 46 49  1  0  0  0  0
 49 50  2  0  0  0  0
 49 51  2  0  0  0  0
 49 52  1  0  0  0  0
 52 53  1  0  0  0  0
 52 54  1  0  0  0  0
 52 55  1  0  0  0  0
M  END
$$$$
