41 flip
                    3D
 Schrodinger Suite 2022-3.
 49 52  0  0  1  0  0  0  0  0999 V2000
    4.5400  -49.4310    8.2520 O   0  0  0  0  0  0  0  0  0  0  0  0
    4.2650  -50.6410    8.2360 C   0  0  0  0  0  0  0  0  0  0  0  0
    5.0630  -51.5910    8.3300 O   0  5  0  0  0  0  0  0  0  0  0  0
    2.7840  -51.0400    8.1130 C   0  0  0  0  0  0  0  0  0  0  0  0
    0.8350  -51.9710    8.8710 C   0  0  0  0  0  0  0  0  0  0  0  0
   -0.1770  -52.5990    9.6140 C   0  0  0  0  0  0  0  0  0  0  0  0
   -1.3860  -52.8320    8.9750 C   0  0  0  0  0  0  0  0  0  0  0  0
   -1.5940  -52.4400    7.6320 C   0  0  0  0  0  0  0  0  0  0  0  0
   -0.5960  -51.8160    6.8930 C   0  0  0  0  0  0  0  0  0  0  0  0
    0.6470  -51.5720    7.4980 C   0  0  0  0  0  0  0  0  0  0  0  0
    1.8950  -50.9870    7.0470 C   0  0  0  0  0  0  0  0  0  0  0  0
    2.0980  -50.5320    5.6450 C   0  0  0  0  0  0  0  0  0  0  0  0
    2.9310  -49.2550    5.4440 C   0  0  0  0  0  0  0  0  0  0  0  0
    2.2450  -47.9960    5.9670 C   0  0  0  0  0  0  0  0  0  0  0  0
    0.9380  -47.9550    5.2710 O   0  0  0  0  0  0  0  0  0  0  0  0
   -0.1070  -47.3910    5.9480 C   0  0  0  0  0  0  0  0  0  0  0  0
   -1.3620  -47.9980    5.7150 C   0  0  0  0  0  0  0  0  0  0  0  0
   -2.4830  -47.5170    6.3800 C   0  0  0  0  0  0  0  0  0  0  0  0
   -2.3270  -46.4330    7.2560 C   0  0  0  0  0  0  0  0  0  0  0  0
   -1.1040  -45.7880    7.4570 C   0  0  0  0  0  0  0  0  0  0  0  0
    0.0210  -46.2670    6.7860 C   0  0  0  0  0  0  0  0  0  0  0  0
   -0.0260  -52.9020   10.6510 H   0  0  0  0  0  0  0  0  0  0  0  0
   -2.1960  -53.3330    9.5090 H   0  0  0  0  0  0  0  0  0  0  0  0
   -2.5660  -52.6390    7.1760 H   0  0  0  0  0  0  0  0  0  0  0  0
   -0.7870  -51.5290    5.8580 H   0  0  0  0  0  0  0  0  0  0  0  0
    1.0900  -50.3440    5.1800 H   0  0  0  0  0  0  0  0  0  0  0  0
    2.5820  -51.3620    5.0610 H   0  0  0  0  0  0  0  0  0  0  0  0
    3.1280  -49.1450    4.3490 H   0  0  0  0  0  0  0  0  0  0  0  0
    3.9110  -49.3550    5.9760 H   0  0  0  0  0  0  0  0  0  0  0  0
    2.7550  -47.0660    5.6450 H   0  0  0  0  0  0  0  0  0  0  0  0
    2.0630  -48.0540    7.0620 H   0  0  0  0  0  0  0  0  0  0  0  0
   -1.4450  -48.8480    5.0360 H   0  0  0  0  0  0  0  0  0  0  0  0
    0.9730  -45.7610    6.9060 H   0  0  0  0  0  0  0  0  0  0  0  0
    2.1450  -51.6170    9.2300 N   0  0  0  0  0  0  0  0  0  0  0  0
    2.5540  -51.8240   10.1350 H   0  0  0  0  0  0  0  0  0  0  0  0
   -1.0470  -44.9310    8.1300 H   0  0  0  0  0  0  0  0  0  0  0  0
   -3.4560  -47.9890    6.2370 H   0  0  0  0  0  0  0  0  0  0  0  0
   -3.4010  -46.0500    8.0900 O   0  0  0  0  0  0  0  0  0  0  0  0
   -6.6470  -43.9330    6.6020 C   0  0  0  0  0  0  0  0  0  0  0  0
   -6.7020  -44.6040    7.8320 C   0  0  0  0  0  0  0  0  0  0  0  0
   -5.5960  -45.2980    8.3140 C   0  0  0  0  0  0  0  0  0  0  0  0
   -4.4300  -45.3210    7.5250 C   0  0  0  0  0  0  0  0  0  0  0  0
   -4.3470  -44.6480    6.2980 C   0  0  0  0  0  0  0  0  0  0  0  0
   -5.4700  -43.9480    5.8490 C   0  0  0  0  0  0  0  0  0  0  0  0
   -7.5240  -43.4030    6.2380 H   0  0  0  0  0  0  0  0  0  0  0  0
   -7.6270  -44.5960    8.4090 H   0  0  0  0  0  0  0  0  0  0  0  0
   -5.6420  -45.8270    9.2660 H   0  0  0  0  0  0  0  0  0  0  0  0
   -3.4530  -44.6820    5.6810 H   0  0  0  0  0  0  0  0  0  0  0  0
   -5.4290  -43.4180    4.8950 H   0  0  0  0  0  0  0  0  0  0  0  0
  1  2  2  0  0  0  0
  2  3  1  0  0  0  0
  2  4  1  0  0  0  0
  4 11  2  0  0  0  0
  4 34  1  0  0  0  0
  5  6  1  0  0  0  0
  5 10  2  0  0  0  0
  5 34  1  0  0  0  0
  6  7  2  0  0  0  0
  6 22  1  0  0  0  0
  7  8  1  0  0  0  0
  7 23  1  0  0  0  0
  8  9  2  0  0  0  0
  8 24  1  0  0  0  0
  9 10  1  0  0  0  0
  9 25  1  0  0  0  0
 10 11  1  0  0  0  0
 11 12  1  0  0  0  0
 12 26  1  0  0  0  0
 12 27  1  0  0  0  0
 12 13  1  0  0  0  0
 13 14  1  0  0  0  0
 13 28  1  0  0  0  0
 13 29  1  0  0  0  0
 14 15  1  0  0  0  0
 14 30  1  0  0  0  0
 14 31  1  0  0  0  0
 15 16  1  0  0  0  0
 16 17  1  0  0  0  0
 16 21  2  0  0  0  0
 17 18  2  0  0  0  0
 17 32  1  0  0  0  0
 18 19  1  0  0  0  0
 18 37  1  0  0  0  0
 19 20  2  0  0  0  0
 19 38  1  0  0  0  0
 20 21  1  0  0  0  0
 20 36  1  0  0  0  0
 21 33  1  0  0  0  0
 34 35  1  0  0  0  0
 38 42  1  0  0  0  0
 39 40  2  0  0  0  0
 39 44  1  0  0  0  0
 39 45  1  0  0  0  0
 40 41  1  0  0  0  0
 40 46  1  0  0  0  0
 41 42  2  0  0  0  0
 41 47  1  0  0  0  0
 42 43  1  0  0  0  0
 43 44  2  0  0  0  0
 43 48  1  0  0  0  0
 44 49  1  0  0  0  0
M  CHG  1   3  -1
M  END
$$$$
