23482
                    3D
 Schrodinger Suite 2022-3.
 50 52  0  0  1  0  0  0  0  0999 V2000
   43.7770   13.9600   16.7000 S   0  0  0  0  0  0  0  0  0  0  0  0
   43.6110   15.2800   15.5660 C   0  0  0  0  0  0  0  0  0  0  0  0
   42.7060   14.9260   14.5980 C   0  0  0  0  0  0  0  0  0  0  0  0
   42.1220   13.6180   14.8060 C   0  0  0  0  0  0  0  0  0  0  0  0
   42.5920   12.9520   15.9060 C   0  0  0  0  0  0  0  0  0  0  0  0
   44.4000   16.5720   15.7910 C   0  0  0  0  0  0  0  0  0  0  0  0
   45.2430   16.5160   16.7140 O   0  0  0  0  0  0  0  0  0  0  0  0
   44.1650   17.5580   15.0920 O   0  5  0  0  0  0  0  0  0  0  0  0
   42.2640   11.6250   16.3840 C   0  0  0  0  0  0  0  0  0  0  0  0
   40.9610   11.1340   16.2320 C   0  0  0  0  0  0  0  0  0  0  0  0
   40.6610    9.7820   16.5100 C   0  0  0  0  0  0  0  0  0  0  0  0
   41.6430    8.9550   17.0710 C   0  0  0  0  0  0  0  0  0  0  0  0
   42.9220    9.4790   17.3090 C   0  0  0  0  0  0  0  0  0  0  0  0
   43.2480   10.7830   16.9550 C   0  0  0  0  0  0  0  0  0  0  0  0
   40.8300   12.8950   13.6040 Br  0  0  0  0  0  0  0  0  0  0  0  0
   42.4940   15.6760   13.4870 O   0  0  0  0  0  0  0  0  0  0  0  0
   41.1280   16.1810   13.3430 C   0  0  0  0  0  0  0  0  0  0  0  0
   41.3690   17.6070   12.7570 C   0  0  0  0  0  0  0  0  0  0  0  0
   40.3580   18.3410   12.7350 O   0  5  0  0  0  0  0  0  0  0  0  0
   42.4960   17.8960   12.3380 O   0  0  0  0  0  0  0  0  0  0  0  0
   39.3100    9.3620   16.2530 N   0  0  0  0  0  0  0  0  0  0  0  0
   39.0330    7.9060   16.1180 C   0  0  0  0  0  0  0  0  0  0  0  0
   37.5020    7.6880   16.1200 C   0  0  0  0  0  0  0  0  0  0  0  0
   37.1840    6.1830   16.0260 C   0  0  0  0  0  0  0  0  0  0  0  0
   37.7830    5.5850   14.7890 N   0  0  1  0  0  0  0  0  0  0  0  0
   39.2670    5.7930   14.7280 C   0  0  0  0  0  0  0  0  0  0  0  0
   39.6280    7.2860   14.8280 C   0  0  0  0  0  0  0  0  0  0  0  0
   37.2350    4.0010   14.3750 S   0  0  0  0  0  0  0  0  0  0  0  0
   37.4100    3.8420   12.9180 O   0  0  0  0  0  0  0  0  0  0  0  0
   35.8130    3.8970   14.7730 O   0  0  0  0  0  0  0  0  0  0  0  0
   38.1990    2.8410   15.2390 C   0  0  0  0  0  0  0  0  0  0  0  0
   40.1480   11.7830   15.8970 H   0  0  0  0  0  0  0  0  0  0  0  0
   41.4420    7.9180   17.3270 H   0  0  0  0  0  0  0  0  0  0  0  0
   43.6680    8.8260   17.7670 H   0  0  0  0  0  0  0  0  0  0  0  0
   44.2690   11.1330   17.1160 H   0  0  0  0  0  0  0  0  0  0  0  0
   40.5860   16.2000   14.3120 H   0  0  0  0  0  0  0  0  0  0  0  0
   40.6090   15.5200   12.6200 H   0  0  0  0  0  0  0  0  0  0  0  0
   38.8780    9.8850   15.4690 H   0  0  0  0  0  0  0  0  0  0  0  0
   39.4620    7.3710   17.0090 H   0  0  0  0  0  0  0  0  0  0  0  0
   37.0290    8.2260   15.2650 H   0  0  0  0  0  0  0  0  0  0  0  0
   37.0680    8.0770   17.0730 H   0  0  0  0  0  0  0  0  0  0  0  0
   36.0690    6.0590   15.9850 H   0  0  0  0  0  0  0  0  0  0  0  0
   37.5750    5.6690   16.9490 H   0  0  0  0  0  0  0  0  0  0  0  0
   39.6530    5.4010   13.7490 H   0  0  0  0  0  0  0  0  0  0  0  0
   39.7900    5.2460   15.5630 H   0  0  0  0  0  0  0  0  0  0  0  0
   40.7430    7.3590   14.8540 H   0  0  0  0  0  0  0  0  0  0  0  0
   39.2510    7.8270   13.9310 H   0  0  0  0  0  0  0  0  0  0  0  0
   38.2320    3.0440   16.3420 H   0  0  0  0  0  0  0  0  0  0  0  0
   39.2650    2.8130   14.8930 H   0  0  0  0  0  0  0  0  0  0  0  0
   37.8070    1.7980   15.1260 H   0  0  0  0  0  0  0  0  0  0  0  0
  1  2  1  0  0  0  0
  1  5  1  0  0  0  0
  2  3  2  0  0  0  0
  2  6  1  0  0  0  0
  3  4  1  0  0  0  0
  3 16  1  0  0  0  0
  4  5  2  0  0  0  0
  4 15  1  0  0  0  0
  5  9  1  0  0  0  0
  6  7  2  0  0  0  0
  6  8  1  0  0  0  0
  9 10  1  0  0  0  0
  9 14  2  0  0  0  0
 10 11  2  0  0  0  0
 10 32  1  0  0  0  0
 11 12  1  0  0  0  0
 11 21  1  0  0  0  0
 12 13  2  0  0  0  0
 12 33  1  0  0  0  0
 13 14  1  0  0  0  0
 13 34  1  0  0  0  0
 14 35  1  0  0  0  0
 16 17  1  0  0  0  0
 17 18  1  0  0  0  0
 17 36  1  0  0  0  0
 17 37  1  0  0  0  0
 18 19  1  0  0  0  0
 18 20  2  0  0  0  0
 21 22  1  0  0  0  0
 21 38  1  0  0  0  0
 22 23  1  0  0  0  0
 22 27  1  0  0  0  0
 22 39  1  0  0  0  0
 23 24  1  0  0  0  0
 23 40  1  0  0  0  0
 23 41  1  0  0  0  0
 24 25  1  0  0  0  0
 24 42  1  0  0  0  0
 24 43  1  0  0  0  0
 25 26  1  0  0  0  0
 25 28  1  0  0  0  0
 26 27  1  0  0  0  0
 26 44  1  0  0  0  0
 26 45  1  0  0  0  0
 27 46  1  0  0  0  0
 27 47  1  0  0  0  0
 28 29  2  0  0  0  0
 28 30  2  0  0  0  0
 28 31  1  0  0  0  0
 31 48  1  0  0  0  0
 31 49  1  0  0  0  0
 31 50  1  0  0  0  0
M  CHG  2   8  -1  19  -1
M  END
$$$$
