1oiy
 OpenBabel02232411153D
Structure written by MMmdl.
 49 52  0  0  0  0  0  0  0  0999 V2000
    1.7990   28.8980    6.8190 C   0  0  0  0  0  0  0  0  0  0  0  0
   -1.6590   31.5110    8.0030 C   0  0  0  0  0  0  0  0  0  0  0  0
   -0.1880   26.0180    8.9010 C   0  0  0  0  0  0  0  0  0  0  0  0
   -0.9290   25.3180   10.0470 C   0  0  0  0  0  0  0  0  0  0  0  0
   -0.7720   23.7950    9.8290 C   0  0  0  0  0  0  0  0  0  0  0  0
   -1.3650   22.9950   10.9970 C   0  0  0  0  0  0  0  0  0  0  0  0
   -0.7680   23.4370   12.3430 C   0  0  0  0  0  0  0  0  0  0  0  0
   -0.9690   24.9440   12.5650 C   0  0  0  0  0  0  0  0  0  0  0  0
   -0.3630   25.7580   11.4120 C   0  0  0  0  0  0  0  0  0  0  0  0
    5.4060   25.7210    5.7820 C   0  0  0  0  0  0  0  0  0  0  0  0
    5.1810   24.9180    6.9140 C   0  0  0  0  0  0  0  0  0  0  0  0
    4.2640   25.3380    7.8860 C   0  0  0  0  0  0  0  0  0  0  0  0
    3.5640   26.5340    7.7360 C   0  0  0  0  0  0  0  0  0  0  0  0
    1.0740   27.9420    7.5240 N   0  0  0  0  0  0  0  0  0  0  0  0
   -0.1150   28.2760    8.0860 C   0  0  0  0  0  0  0  0  0  0  0  0
   -0.7950   27.3730    8.8090 O   0  0  0  0  0  0  0  0  0  0  0  0
   -0.6290   29.5900    7.9270 C   0  0  0  0  0  0  0  0  0  0  0  0
   -1.7690   30.2440    8.4080 N   0  0  0  0  0  0  0  0  0  0  0  0
   -0.4500   31.7410    7.2550 N   0  0  0  0  0  0  0  0  0  0  0  0
    0.2060   30.5170    7.1800 C   0  0  0  0  0  0  0  0  0  0  0  0
    1.4020   30.2020    6.5820 N   0  0  0  0  0  0  0  0  0  0  0  0
    3.0290   28.5080    6.2960 N   0  0  0  0  0  0  0  0  0  0  0  0
    3.7360   27.2980    6.5690 C   0  0  0  0  0  0  0  0  0  0  0  0
    4.6880   26.8970    5.6040 C   0  0  0  0  0  0  0  0  0  0  0  0
   -2.3550   32.3190    8.2070 H   0  0  0  0  0  0  0  0  0  0  0  0
    0.8970   26.1160    9.1240 H   0  0  0  0  0  0  0  0  0  0  0  0
   -0.3720   25.5430    7.9160 H   0  0  0  0  0  0  0  0  0  0  0  0
   -2.0130   25.5810   10.0190 H   0  0  0  0  0  0  0  0  0  0  0  0
   -1.2910   23.5020    8.8890 H   0  0  0  0  0  0  0  0  0  0  0  0
    0.3130   23.5440    9.7380 H   0  0  0  0  0  0  0  0  0  0  0  0
   -2.4640   23.1500   11.0270 H   0  0  0  0  0  0  0  0  0  0  0  0
   -1.1570   21.9090   10.8470 H   0  0  0  0  0  0  0  0  0  0  0  0
   -1.2550   22.8700   13.1690 H   0  0  0  0  0  0  0  0  0  0  0  0
    0.3230   23.2090   12.3460 H   0  0  0  0  0  0  0  0  0  0  0  0
   -2.0570   25.1640   12.6570 H   0  0  0  0  0  0  0  0  0  0  0  0
   -0.4720   25.2430   13.5170 H   0  0  0  0  0  0  0  0  0  0  0  0
    0.7450   25.6130   11.4270 H   0  0  0  0  0  0  0  0  0  0  0  0
   -0.5780   26.8390   11.5720 H   0  0  0  0  0  0  0  0  0  0  0  0
    6.1470   25.4310    5.0290 H   0  0  0  0  0  0  0  0  0  0  0  0
    4.0690   24.7310    8.7750 H   0  0  0  0  0  0  0  0  0  0  0  0
    2.8850   26.8480    8.5290 H   0  0  0  0  0  0  0  0  0  0  0  0
   -0.1780   32.6210    6.7920 H   0  0  0  0  0  0  0  0  0  0  0  0
    3.5360   29.1730    5.6650 H   0  0  0  0  0  0  0  0  0  0  0  0
    4.8630   27.5050    4.7150 H   0  0  0  0  0  0  0  0  0  0  0  0
    6.1890   22.9350    6.0380 O   0  0  0  0  0  0  0  0  0  0  0  0
    5.8950   23.6160    7.0160 C   0  0  0  0  0  0  0  0  0  0  0  0
    6.3110   23.1980    8.2840 N   0  0  0  0  0  0  0  0  0  0  0  0
    5.8870   23.5830    9.1640 H   0  0  0  0  0  0  0  0  0  0  0  0
    6.6740   22.2490    8.3900 H   0  0  0  0  0  0  0  0  0  0  0  0
  1 14  2  0  0  0  0
  1 21  1  0  0  0  0
  1 22  1  0  0  0  0
  2 18  2  0  0  0  0
  2 19  1  0  0  0  0
  2 25  1  0  0  0  0
  3  4  1  0  0  0  0
  3 16  1  0  0  0  0
  3 26  1  0  0  0  0
  3 27  1  0  0  0  0
  4  5  1  0  0  0  0
  4  9  1  0  0  0  0
  4 28  1  0  0  0  0
  5  6  1  0  0  0  0
  5 29  1  0  0  0  0
  5 30  1  0  0  0  0
  6  7  1  0  0  0  0
  6 31  1  0  0  0  0
  6 32  1  0  0  0  0
  7  8  1  0  0  0  0
  7 33  1  0  0  0  0
  7 34  1  0  0  0  0
  8  9  1  0  0  0  0
  8 35  1  0  0  0  0
  8 36  1  0  0  0  0
  9 37  1  0  0  0  0
  9 38  1  0  0  0  0
 10 11  2  0  0  0  0
 10 24  1  0  0  0  0
 10 39  1  0  0  0  0
 11 12  1  0  0  0  0
 11 46  1  0  0  0  0
 12 13  2  0  0  0  0
 12 40  1  0  0  0  0
 13 23  1  0  0  0  0
 13 41  1  0  0  0  0
 14 15  1  0  0  0  0
 15 16  1  0  0  0  0
 15 17  2  0  0  0  0
 17 18  1  0  0  0  0
 17 20  1  0  0  0  0
 19 20  1  0  0  0  0
 19 42  1  0  0  0  0
 20 21  2  0  0  0  0
 22 23  1  0  0  0  0
 22 43  1  0  0  0  0
 23 24  2  0  0  0  0
 24 44  1  0  0  0  0
 45 46  2  0  0  0  0
 46 47  1  0  0  0  0
 47 48  1  0  0  0  0
 47 49  1  0  0  0  0
M  END
$$$$
