18660-1
 OpenBabel02232411163D
Structure written by MMmdl.
 52 53  0  0  0  0  0  0  0  0999 V2000
   24.9750   13.8230   27.6390 C   0  0  0  0  0  0  0  0  0  0  0  0
   25.1990   12.3640   28.5460 S   0  0  0  0  0  0  0  0  0  0  0  0
   26.2540   12.5810   29.5460 O   0  0  0  0  0  0  0  0  0  0  0  0
   25.4830   11.2340   27.6530 O   0  0  0  0  0  0  0  0  0  0  0  0
   23.6610   12.1540   29.3960 C   0  0  0  0  0  0  0  0  0  0  0  0
   23.6210   10.9200   30.2840 C   0  0  0  0  0  0  0  0  0  0  0  0
   22.3970   11.0990   31.1160 O   0  0  0  0  0  0  0  0  0  0  0  0
   21.7070    9.9970   31.5000 C   0  0  0  0  0  0  0  0  0  0  0  0
   22.1450    8.7840   31.0940 N   0  0  0  0  0  0  0  0  0  0  0  0
   21.3780    7.6770   31.4300 C   0  0  0  0  0  0  0  0  0  0  0  0
   20.2250    7.7730   32.2040 C   0  0  0  0  0  0  0  0  0  0  0  0
   19.7870    9.0470   32.6520 C   0  0  0  0  0  0  0  0  0  0  0  0
   18.6460    9.1410   33.4090 N   0  0  0  0  0  0  0  0  0  0  0  0
   20.5400   10.2140   32.2900 C   0  0  0  0  0  0  0  0  0  0  0  0
   20.1640   11.5260   32.6450 C   0  0  0  0  0  0  0  0  0  0  0  0
   19.8920   12.6220   32.9130 N   0  0  0  0  0  0  0  0  0  0  0  0
   21.9030    6.4910   30.8780 N   0  0  0  0  0  0  0  0  0  0  0  0
   21.2630    5.2270   30.8460 C   0  0  0  0  0  0  0  0  0  0  0  0
   20.1960    5.0270   31.3850 O   0  0  0  0  0  0  0  0  0  0  0  0
   22.0090    4.1920   30.0180 C   0  0  0  0  0  0  0  0  0  0  0  0
   23.2950    3.7660   30.6630 C   0  0  0  0  0  0  0  0  0  0  0  0
   24.4790    4.5160   30.4630 C   0  0  0  0  0  0  0  0  0  0  0  0
   24.3030    5.5900   29.5980 O   0  0  0  0  0  0  0  0  0  0  0  0
   25.4210    6.4970   29.4090 C   0  0  0  0  0  0  0  0  0  0  0  0
   25.6860    4.1640   31.0790 C   0  0  0  0  0  0  0  0  0  0  0  0
   25.7330    3.0380   31.8960 C   0  0  0  0  0  0  0  0  0  0  0  0
   24.5660    2.2700   32.0740 C   0  0  0  0  0  0  0  0  0  0  0  0
   23.3540    2.6220   31.4640 C   0  0  0  0  0  0  0  0  0  0  0  0
   24.7580    1.1920   32.9150 O   0  0  0  0  0  0  0  0  0  0  0  0
   23.7120    0.1890   32.9760 C   0  0  0  0  0  0  0  0  0  0  0  0
   24.9480   14.7440   28.2840 H   0  0  0  0  0  0  0  0  0  0  0  0
   24.0260   13.8430   27.0470 H   0  0  0  0  0  0  0  0  0  0  0  0
   25.8180   14.0110   26.9160 H   0  0  0  0  0  0  0  0  0  0  0  0
   23.4180   13.0720   30.0030 H   0  0  0  0  0  0  0  0  0  0  0  0
   22.8220   12.0790   28.6390 H   0  0  0  0  0  0  0  0  0  0  0  0
   24.4440   10.8760   31.0350 H   0  0  0  0  0  0  0  0  0  0  0  0
   23.5370    9.9850   29.6800 H   0  0  0  0  0  0  0  0  0  0  0  0
   19.6400    6.8870   32.4600 H   0  0  0  0  0  0  0  0  0  0  0  0
   18.2770   10.0460   33.7040 H   0  0  0  0  0  0  0  0  0  0  0  0
   18.1060    8.2950   33.6720 H   0  0  0  0  0  0  0  0  0  0  0  0
   22.8350    6.5860   30.4020 H   0  0  0  0  0  0  0  0  0  0  0  0
   21.3440    3.3030   29.8730 H   0  0  0  0  0  0  0  0  0  0  0  0
   22.2300    4.6390   29.0100 H   0  0  0  0  0  0  0  0  0  0  0  0
   26.2680    5.9540   28.9370 H   0  0  0  0  0  0  0  0  0  0  0  0
   24.9760    7.2440   28.7130 H   0  0  0  0  0  0  0  0  0  0  0  0
   25.7040    6.9610   30.3770 H   0  0  0  0  0  0  0  0  0  0  0  0
   26.5970    4.7490   30.9280 H   0  0  0  0  0  0  0  0  0  0  0  0
   26.6690    2.7500   32.3840 H   0  0  0  0  0  0  0  0  0  0  0  0
   22.4620    2.0130   31.6090 H   0  0  0  0  0  0  0  0  0  0  0  0
   24.1690   -0.5710   33.6540 H   0  0  0  0  0  0  0  0  0  0  0  0
   22.7890    0.6180   33.4220 H   0  0  0  0  0  0  0  0  0  0  0  0
   23.5320   -0.2350   31.9650 H   0  0  0  0  0  0  0  0  0  0  0  0
  1  2  1  0  0  0  0
  1 31  1  0  0  0  0
  1 32  1  0  0  0  0
  1 33  1  0  0  0  0
  2  3  2  0  0  0  0
  2  4  2  0  0  0  0
  2  5  1  0  0  0  0
  5  6  1  0  0  0  0
  5 34  1  0  0  0  0
  5 35  1  0  0  0  0
  6  7  1  0  0  0  0
  6 36  1  0  0  0  0
  6 37  1  0  0  0  0
  7  8  1  0  0  0  0
  8 14  2  0  0  0  0
  8  9  1  0  0  0  0
  9 10  2  0  0  0  0
 10 11  1  0  0  0  0
 10 17  1  0  0  0  0
 11 12  2  0  0  0  0
 11 38  1  0  0  0  0
 12 13  1  0  0  0  0
 12 14  1  0  0  0  0
 13 39  1  0  0  0  0
 13 40  1  0  0  0  0
 14 15  1  0  0  0  0
 15 16  3  0  0  0  0
 17 18  1  0  0  0  0
 17 41  1  0  0  0  0
 18 19  2  0  0  0  0
 18 20  1  0  0  0  0
 20 21  1  0  0  0  0
 20 42  1  0  0  0  0
 20 43  1  0  0  0  0
 21 28  2  0  0  0  0
 21 22  1  0  0  0  0
 22 23  1  0  0  0  0
 22 25  2  0  0  0  0
 23 24  1  0  0  0  0
 24 44  1  0  0  0  0
 24 45  1  0  0  0  0
 24 46  1  0  0  0  0
 25 26  1  0  0  0  0
 25 47  1  0  0  0  0
 26 27  2  0  0  0  0
 26 48  1  0  0  0  0
 27 28  1  0  0  0  0
 27 29  1  0  0  0  0
 28 49  1  0  0  0  0
 29 30  1  0  0  0  0
 30 50  1  0  0  0  0
 30 51  1  0  0  0  0
 30 52  1  0  0  0  0
M  END
$$$$
