p38a_2aa
 OpenBabel02232411163D
Structure written by MMmdl.
 43 45  0  0  0  0  0  0  0  0999 V2000
   36.3260   35.9880   15.9090 C   0  0  0  0  0  0  0  0  0  0  0  0
   34.4300   35.0320   21.4000 C   0  0  0  0  0  0  0  0  0  0  0  0
   35.6750   35.5350   17.0530 C   0  0  0  0  0  0  0  0  0  0  0  0
   33.7710   39.1630   23.8280 C   0  0  0  0  0  0  0  0  0  0  0  0
   32.8210   39.2820   26.1960 C   0  0  0  0  0  0  0  0  0  0  0  0
   34.6640   37.8960   21.5500 C   0  0  0  0  0  0  0  0  0  0  0  0
   35.1910   37.2060   20.4040 C   0  0  0  0  0  0  0  0  0  0  0  0
   37.6230   36.4870   16.0850 C   0  0  0  0  0  0  0  0  0  0  0  0
   38.2770   36.5130   17.3200 C   0  0  0  0  0  0  0  0  0  0  0  0
   37.5900   36.0820   18.4600 C   0  0  0  0  0  0  0  0  0  0  0  0
   34.0960   37.1650   22.6350 C   0  0  0  0  0  0  0  0  0  0  0  0
   34.6980   39.3110   21.6770 C   0  0  0  0  0  0  0  0  0  0  0  0
   35.1030   35.8580   20.3590 C   0  0  0  0  0  0  0  0  0  0  0  0
   36.2880   35.5930   18.3210 C   0  0  0  0  0  0  0  0  0  0  0  0
   33.3790   35.0280   23.6970 C   0  0  0  0  0  0  0  0  0  0  0  0
   34.4570   35.0160   16.9730 F   0  0  0  0  0  0  0  0  0  0  0  0
   35.5750   34.9970   19.3710 O   0  0  0  0  0  0  0  0  0  0  0  0
   34.2770   39.9540   22.7750 N   0  0  0  0  0  0  0  0  0  0  0  0
   34.2400   33.8380   21.3310 O   0  0  0  0  0  0  0  0  0  0  0  0
   33.9840   35.7680   22.5540 N   0  0  0  0  0  0  0  0  0  0  0  0
   33.6470   37.7910   23.7760 N   0  0  0  0  0  0  0  0  0  0  0  0
   33.3810   39.8550   24.9510 N   0  0  0  0  0  0  0  0  0  0  0  0
   35.8450   35.9780   14.9270 H   0  0  0  0  0  0  0  0  0  0  0  0
   31.3910   38.7340   25.9750 C   0  0  0  0  0  0  0  0  0  0  0  0
   35.6550   37.8020   19.6140 H   0  0  0  0  0  0  0  0  0  0  0  0
   39.3000   36.8910   17.4030 H   0  0  0  0  0  0  0  0  0  0  0  0
   38.0660   36.1520   19.4410 H   0  0  0  0  0  0  0  0  0  0  0  0
   35.0810   39.9260   20.8470 H   0  0  0  0  0  0  0  0  0  0  0  0
   33.9920   35.1940   24.6240 H   0  0  0  0  0  0  0  0  0  0  0  0
   32.3360   35.4010   23.8870 H   0  0  0  0  0  0  0  0  0  0  0  0
   33.3420   33.9290   23.4760 H   0  0  0  0  0  0  0  0  0  0  0  0
   33.5290   40.8840   24.9800 H   0  0  0  0  0  0  0  0  0  0  0  0
   38.2460   36.9940   15.0240 F   0  0  0  0  0  0  0  0  0  0  0  0
   33.7420   38.2130   26.8440 C   0  0  0  0  0  0  0  0  0  0  0  0
   33.4100   38.0900   28.2350 O   0  0  0  0  0  0  0  0  0  0  0  0
   32.4040   38.0370   28.2970 H   0  0  0  0  0  0  0  0  0  0  0  0
   33.6170   37.2170   26.3610 H   0  0  0  0  0  0  0  0  0  0  0  0
   34.8060   38.5430   26.8410 H   0  0  0  0  0  0  0  0  0  0  0  0
   30.8430   38.6530   27.3160 O   0  0  0  0  0  0  0  0  0  0  0  0
   30.7590   39.4520   25.4070 H   0  0  0  0  0  0  0  0  0  0  0  0
   31.3790   37.7200   25.5220 H   0  0  0  0  0  0  0  0  0  0  0  0
   30.0780   37.9750   27.2900 H   0  0  0  0  0  0  0  0  0  0  0  0
   32.7350   40.1530   26.9190 H   0  0  0  0  0  0  0  0  0  0  0  0
  1  3  2  0  0  0  0
  1  8  1  0  0  0  0
  1 23  1  0  0  0  0
  2 13  1  0  0  0  0
  2 19  2  0  0  0  0
  2 20  1  0  0  0  0
  3 14  1  0  0  0  0
  3 16  1  0  0  0  0
  4 18  2  0  0  0  0
  4 21  1  0  0  0  0
  4 22  1  0  0  0  0
  5 22  1  0  0  0  0
  5 24  1  0  0  0  0
  5 34  1  0  0  0  0
  5 43  1  0  0  0  0
  6  7  1  0  0  0  0
  6 11  1  0  0  0  0
  6 12  2  0  0  0  0
  7 13  2  0  0  0  0
  7 25  1  0  0  0  0
  8  9  2  0  0  0  0
  8 33  1  0  0  0  0
  9 10  1  0  0  0  0
  9 26  1  0  0  0  0
 10 14  2  0  0  0  0
 10 27  1  0  0  0  0
 11 20  1  0  0  0  0
 11 21  2  0  0  0  0
 12 18  1  0  0  0  0
 12 28  1  0  0  0  0
 13 17  1  0  0  0  0
 14 17  1  0  0  0  0
 15 20  1  0  0  0  0
 15 29  1  0  0  0  0
 15 30  1  0  0  0  0
 15 31  1  0  0  0  0
 22 32  1  0  0  0  0
 24 39  1  0  0  0  0
 24 40  1  0  0  0  0
 24 41  1  0  0  0  0
 34 35  1  0  0  0  0
 34 37  1  0  0  0  0
 34 38  1  0  0  0  0
 35 36  1  0  0  0  0
 39 42  1  0  0  0  0
M  END
$$$$
