p38a_3flq
 OpenBabel02232411163D
Structure written by MMmdl.
 47 49  0  0  1  0  0  0  0  0999 V2000
   33.9790   39.2060   23.7760 C   0  0  0  0  0  0  0  0  0  0  0  0
   34.6400   37.9910   21.3860 C   0  0  0  0  0  0  0  0  0  0  0  0
   35.0440   37.3250   20.1770 C   0  0  0  0  0  0  0  0  0  0  0  0
   34.2450   37.2300   22.5250 C   0  0  0  0  0  0  0  0  0  0  0  0
   35.0180   35.9730   20.1380 C   0  0  0  0  0  0  0  0  0  0  0  0
   33.0170   39.2930   26.1530 C   0  0  1  0  0  0  0  0  0  0  0  0
   31.5870   38.9280   25.7450 C   0  0  0  0  0  0  0  0  0  0  0  0
   33.4240   36.0020   28.5030 C   0  0  0  0  0  0  0  0  0  0  0  0
   34.1860   35.8280   22.4490 N   0  0  0  0  0  0  0  0  0  0  0  0
   33.7830   38.1130   26.7670 C   0  0  0  0  0  0  0  0  0  0  0  0
   38.3240   37.1870   14.9170 F   0  0  0  0  0  0  0  0  0  0  0  0
   37.6260   36.6920   15.9360 C   0  0  0  0  0  0  0  0  0  0  0  0
   36.2770   36.3920   15.7320 C   0  0  0  0  0  0  0  0  0  0  0  0
   35.5140   35.9300   16.8100 C   0  0  0  0  0  0  0  0  0  0  0  0
   38.2740   36.5390   17.1700 C   0  0  0  0  0  0  0  0  0  0  0  0
   37.4910   36.0890   18.2290 C   0  0  0  0  0  0  0  0  0  0  0  0
   38.0250   35.9570   19.4360 F   0  0  0  0  0  0  0  0  0  0  0  0
   36.1270   35.7690   18.0550 C   0  0  0  0  0  0  0  0  0  0  0  0
   35.4060   35.1480   19.0850 O   0  0  0  0  0  0  0  0  0  0  0  0
   34.5250   35.1120   21.2460 C   0  0  0  0  0  0  0  0  0  0  0  0
   34.3950   33.9090   21.1990 O   0  0  0  0  0  0  0  0  0  0  0  0
   34.6300   39.4050   21.5270 C   0  0  0  0  0  0  0  0  0  0  0  0
   34.3170   40.0210   22.6760 N   0  0  0  0  0  0  0  0  0  0  0  0
   33.9100   37.8310   23.7130 N   0  0  0  0  0  0  0  0  0  0  0  0
   33.7840   35.0650   23.6630 C   0  0  0  0  0  0  0  0  0  0  0  0
   33.7800   39.8540   24.9790 N   0  0  0  0  0  0  0  0  0  0  0  0
   33.4430   37.7380   28.4530 S   0  0  0  0  0  0  0  0  0  0  0  0
   34.5300   38.2550   29.3230 O   0  0  0  0  0  0  0  0  0  0  0  0
   32.1370   38.2760   28.8910 O   0  0  0  0  0  0  0  0  0  0  0  0
   35.3690   37.9400   19.3340 H   0  0  0  0  0  0  0  0  0  0  0  0
   32.9920   40.1560   26.8840 H   0  0  0  0  0  0  0  0  0  0  0  0
   31.1010   39.7830   25.2220 H   0  0  0  0  0  0  0  0  0  0  0  0
   31.5750   38.0440   25.0660 H   0  0  0  0  0  0  0  0  0  0  0  0
   30.9810   38.6780   26.6480 H   0  0  0  0  0  0  0  0  0  0  0  0
   33.3320   35.5990   29.5430 H   0  0  0  0  0  0  0  0  0  0  0  0
   32.5680   35.5710   27.9190 H   0  0  0  0  0  0  0  0  0  0  0  0
   34.3540   35.5490   28.0660 H   0  0  0  0  0  0  0  0  0  0  0  0
   33.5870   37.2020   26.1260 H   0  0  0  0  0  0  0  0  0  0  0  0
   34.8870   38.3120   26.6460 H   0  0  0  0  0  0  0  0  0  0  0  0
   35.8070   36.5300   14.7560 H   0  0  0  0  0  0  0  0  0  0  0  0
   34.4500   35.7120   16.6710 H   0  0  0  0  0  0  0  0  0  0  0  0
   39.3290   36.7980   17.3020 H   0  0  0  0  0  0  0  0  0  0  0  0
   34.8740   40.0430   20.6620 H   0  0  0  0  0  0  0  0  0  0  0  0
   33.7280   33.9690   23.4380 H   0  0  0  0  0  0  0  0  0  0  0  0
   34.5280   35.2340   24.4890 H   0  0  0  0  0  0  0  0  0  0  0  0
   32.7780   35.4140   24.0240 H   0  0  0  0  0  0  0  0  0  0  0  0
   33.7840   40.8960   24.9640 H   0  0  0  0  0  0  0  0  0  0  0  0
  1 23  2  0  0  0  0
  1 24  1  0  0  0  0
  1 26  1  0  0  0  0
  2  3  1  0  0  0  0
  2  4  1  0  0  0  0
  2 22  2  0  0  0  0
  3  5  2  0  0  0  0
  3 30  1  0  0  0  0
  4  9  1  0  0  0  0
  4 24  2  0  0  0  0
  5 19  1  0  0  0  0
  5 20  1  0  0  0  0
  6  7  1  0  0  0  0
  6 10  1  0  0  0  0
  6 26  1  0  0  0  0
  6 31  1  6  0  0  0
  7 32  1  0  0  0  0
  7 33  1  0  0  0  0
  7 34  1  0  0  0  0
  8 27  1  0  0  0  0
  8 35  1  0  0  0  0
  8 36  1  0  0  0  0
  8 37  1  0  0  0  0
  9 20  1  0  0  0  0
  9 25  1  0  0  0  0
 10 27  1  0  0  0  0
 10 38  1  0  0  0  0
 10 39  1  0  0  0  0
 11 12  1  0  0  0  0
 12 13  2  0  0  0  0
 12 15  1  0  0  0  0
 13 14  1  0  0  0  0
 13 40  1  0  0  0  0
 14 18  2  0  0  0  0
 14 41  1  0  0  0  0
 15 16  2  0  0  0  0
 15 42  1  0  0  0  0
 16 17  1  0  0  0  0
 16 18  1  0  0  0  0
 18 19  1  0  0  0  0
 20 21  2  0  0  0  0
 22 23  1  0  0  0  0
 22 43  1  0  0  0  0
 25 44  1  0  0  0  0
 25 45  1  0  0  0  0
 25 46  1  0  0  0  0
 26 47  1  0  0  0  0
 27 28  2  0  0  0  0
 27 29  2  0  0  0  0
M  END
$$$$
