18639-1
 OpenBabel02232411163D
Structure written by MMmdl.
 48 49  0  0  0  0  0  0  0  0999 V2000
   23.2170   10.7830   29.0620 C   0  0  0  0  0  0  0  0  0  0  0  0
   23.4890   11.0410   30.5290 C   0  0  0  0  0  0  0  0  0  0  0  0
   22.2230   11.1560   31.2840 O   0  0  0  0  0  0  0  0  0  0  0  0
   21.5610   10.0300   31.6320 C   0  0  0  0  0  0  0  0  0  0  0  0
   22.0300    8.8300   31.2180 N   0  0  0  0  0  0  0  0  0  0  0  0
   21.2820    7.7080   31.5310 C   0  0  0  0  0  0  0  0  0  0  0  0
   20.1120    7.7660   32.2810 C   0  0  0  0  0  0  0  0  0  0  0  0
   19.6430    9.0270   32.7370 C   0  0  0  0  0  0  0  0  0  0  0  0
   18.4880    9.0880   33.4740 N   0  0  0  0  0  0  0  0  0  0  0  0
   20.3750   10.2120   32.4040 C   0  0  0  0  0  0  0  0  0  0  0  0
   19.9780   11.5190   32.7580 C   0  0  0  0  0  0  0  0  0  0  0  0
   19.7020   12.6170   33.0090 N   0  0  0  0  0  0  0  0  0  0  0  0
   21.8570    6.5380   30.9830 N   0  0  0  0  0  0  0  0  0  0  0  0
   21.2480    5.2720   30.8740 C   0  0  0  0  0  0  0  0  0  0  0  0
   20.1480    5.0290   31.3240 O   0  0  0  0  0  0  0  0  0  0  0  0
   22.0700    4.2720   30.0680 C   0  0  0  0  0  0  0  0  0  0  0  0
   23.4350    3.9950   30.6260 C   0  0  0  0  0  0  0  0  0  0  0  0
   24.5360    4.8540   30.3110 C   0  0  0  0  0  0  0  0  0  0  0  0
   24.1830    5.9030   29.4720 O   0  0  0  0  0  0  0  0  0  0  0  0
   25.1420    6.9850   29.3080 C   0  0  0  0  0  0  0  0  0  0  0  0
   25.8120    4.6080   30.7900 C   0  0  0  0  0  0  0  0  0  0  0  0
   26.0380    3.4900   31.6200 C   0  0  0  0  0  0  0  0  0  0  0  0
   27.3890    3.2320   32.1270 N   0  3  0  0  0  0  0  0  0  0  0  0
   27.5230    2.4100   33.0210 O   0  5  0  0  0  0  0  0  0  0  0  0
   28.3270    3.8450   31.6320 O   0  0  0  0  0  0  0  0  0  0  0  0
   24.9640    2.6260   31.9340 C   0  0  0  0  0  0  0  0  0  0  0  0
   23.6700    2.8860   31.4220 C   0  0  0  0  0  0  0  0  0  0  0  0
   25.3060    1.5830   32.7420 O   0  0  0  0  0  0  0  0  0  0  0  0
   24.3010    0.5540   32.9820 C   0  0  0  0  0  0  0  0  0  0  0  0
   24.1800   10.8310   28.4960 H   0  0  0  0  0  0  0  0  0  0  0  0
   22.5260   11.5460   28.6370 H   0  0  0  0  0  0  0  0  0  0  0  0
   22.7720    9.7720   28.9060 H   0  0  0  0  0  0  0  0  0  0  0  0
   23.8980   12.0650   30.7090 H   0  0  0  0  0  0  0  0  0  0  0  0
   24.1240   10.2470   30.9860 H   0  0  0  0  0  0  0  0  0  0  0  0
   19.5410    6.8630   32.5060 H   0  0  0  0  0  0  0  0  0  0  0  0
   17.9780    8.2220   33.7370 H   0  0  0  0  0  0  0  0  0  0  0  0
   18.0950    9.9790   33.7770 H   0  0  0  0  0  0  0  0  0  0  0  0
   22.7830    6.6820   30.5060 H   0  0  0  0  0  0  0  0  0  0  0  0
   21.4930    3.3120   30.0020 H   0  0  0  0  0  0  0  0  0  0  0  0
   22.1830    4.6920   29.0280 H   0  0  0  0  0  0  0  0  0  0  0  0
   25.4580    7.3820   30.2970 H   0  0  0  0  0  0  0  0  0  0  0  0
   25.9990    6.6240   28.7000 H   0  0  0  0  0  0  0  0  0  0  0  0
   24.5310    7.7340   28.7530 H   0  0  0  0  0  0  0  0  0  0  0  0
   26.6550    5.2590   30.5270 H   0  0  0  0  0  0  0  0  0  0  0  0
   22.8510    2.2000   31.6540 H   0  0  0  0  0  0  0  0  0  0  0  0
   24.8810   -0.1820   33.5890 H   0  0  0  0  0  0  0  0  0  0  0  0
   23.4550    0.9730   33.5670 H   0  0  0  0  0  0  0  0  0  0  0  0
   23.9740    0.1070   32.0180 H   0  0  0  0  0  0  0  0  0  0  0  0
  1  2  1  0  0  0  0
  1 30  1  0  0  0  0
  1 31  1  0  0  0  0
  1 32  1  0  0  0  0
  2  3  1  0  0  0  0
  2 33  1  0  0  0  0
  2 34  1  0  0  0  0
  3  4  1  0  0  0  0
  4 10  2  0  0  0  0
  4  5  1  0  0  0  0
  5  6  2  0  0  0  0
  6  7  1  0  0  0  0
  6 13  1  0  0  0  0
  7  8  2  0  0  0  0
  7 35  1  0  0  0  0
  8  9  1  0  0  0  0
  8 10  1  0  0  0  0
  9 36  1  0  0  0  0
  9 37  1  0  0  0  0
 10 11  1  0  0  0  0
 11 12  3  0  0  0  0
 13 14  1  0  0  0  0
 13 38  1  0  0  0  0
 14 15  2  0  0  0  0
 14 16  1  0  0  0  0
 16 17  1  0  0  0  0
 16 39  1  0  0  0  0
 16 40  1  0  0  0  0
 17 27  2  0  0  0  0
 17 18  1  0  0  0  0
 18 19  1  0  0  0  0
 18 21  2  0  0  0  0
 19 20  1  0  0  0  0
 20 41  1  0  0  0  0
 20 42  1  0  0  0  0
 20 43  1  0  0  0  0
 21 22  1  0  0  0  0
 21 44  1  0  0  0  0
 22 23  1  0  0  0  0
 22 26  2  0  0  0  0
 23 24  1  0  0  0  0
 23 25  2  0  0  0  0
 26 27  1  0  0  0  0
 26 28  1  0  0  0  0
 27 45  1  0  0  0  0
 28 29  1  0  0  0  0
 29 46  1  0  0  0  0
 29 47  1  0  0  0  0
 29 48  1  0  0  0  0
M  CHG  2  23   1  24  -1
M  END
$$$$
