57
 OpenBabel02232411163D
Structure written by MMmdl.
 47 50  0  0  0  0  0  0  0  0999 V2000
    3.3630  -48.1700    7.1100 O   0  0  0  0  0  0  0  0  0  0  0  0
    2.9610  -49.1020    6.3990 C   0  0  0  0  0  0  0  0  0  0  0  0
    3.6520  -49.8330    5.6630 O   0  5  0  0  0  0  0  0  0  0  0  0
    1.4550  -49.4350    6.3930 C   0  0  0  0  0  0  0  0  0  0  0  0
   -0.4090  -50.7580    6.5930 C   0  0  0  0  0  0  0  0  0  0  0  0
   -1.3410  -51.7830    6.8410 C   0  0  0  0  0  0  0  0  0  0  0  0
   -2.6640  -51.5440    6.5050 C   0  0  0  0  0  0  0  0  0  0  0  0
   -3.0680  -50.3130    5.9340 C   0  0  0  0  0  0  0  0  0  0  0  0
   -2.1580  -49.2940    5.6950 C   0  0  0  0  0  0  0  0  0  0  0  0
   -0.8060  -49.4930    6.0260 C   0  0  0  0  0  0  0  0  0  0  0  0
    0.3820  -48.6770    5.9320 C   0  0  0  0  0  0  0  0  0  0  0  0
    0.3670  -47.2710    5.4470 C   0  0  0  0  0  0  0  0  0  0  0  0
    0.3320  -46.2400    6.5910 C   0  0  0  0  0  0  0  0  0  0  0  0
   -0.8250  -46.4080    7.5690 C   0  0  0  0  0  0  0  0  0  0  0  0
   -2.0180  -45.8720    6.8800 O   0  0  0  0  0  0  0  0  0  0  0  0
   -3.1940  -45.8760    7.5690 C   0  0  0  0  0  0  0  0  0  0  0  0
   -5.7070  -45.6450    8.8150 C   0  0  0  0  0  0  0  0  0  0  0  0
   -4.7120  -46.4100    9.3740 C   0  0  0  0  0  0  0  0  0  0  0  0
   -3.4370  -46.5290    8.7640 C   0  0  0  0  0  0  0  0  0  0  0  0
   -1.0450  -52.7340    7.2850 H   0  0  0  0  0  0  0  0  0  0  0  0
   -3.4170  -52.3130    6.6830 H   0  0  0  0  0  0  0  0  0  0  0  0
   -4.1210  -50.1740    5.6850 H   0  0  0  0  0  0  0  0  0  0  0  0
   -2.4930  -48.3510    5.2610 H   0  0  0  0  0  0  0  0  0  0  0  0
   -0.5450  -47.1190    4.8140 H   0  0  0  0  0  0  0  0  0  0  0  0
    1.2690  -47.0600    4.8230 H   0  0  0  0  0  0  0  0  0  0  0  0
    1.2750  -46.3330    7.1880 H   0  0  0  0  0  0  0  0  0  0  0  0
    0.2740  -45.2170    6.1530 H   0  0  0  0  0  0  0  0  0  0  0  0
   -0.6890  -45.7700    8.4690 H   0  0  0  0  0  0  0  0  0  0  0  0
   -1.0360  -47.4710    7.8040 H   0  0  0  0  0  0  0  0  0  0  0  0
   -2.7010  -47.1500    9.2610 H   0  0  0  0  0  0  0  0  0  0  0  0
   -5.4900  -44.9900    7.5640 C   0  0  0  0  0  0  0  0  0  0  0  0
   -4.2300  -45.1050    6.9170 C   0  0  0  0  0  0  0  0  0  0  0  0
   -4.0350  -44.4960    5.6450 C   0  0  0  0  0  0  0  0  0  0  0  0
   -5.0470  -43.7810    5.0480 C   0  0  0  0  0  0  0  0  0  0  0  0
   -6.3070  -43.6620    5.6930 C   0  0  0  0  0  0  0  0  0  0  0  0
   -6.5270  -44.2480    6.9160 C   0  0  0  0  0  0  0  0  0  0  0  0
   -3.0780  -44.6290    5.1400 H   0  0  0  0  0  0  0  0  0  0  0  0
   -4.9000  -43.3060    4.0810 H   0  0  0  0  0  0  0  0  0  0  0  0
   -7.0980  -43.1020    5.1970 H   0  0  0  0  0  0  0  0  0  0  0  0
   -7.4980  -44.1660    7.4040 H   0  0  0  0  0  0  0  0  0  0  0  0
   -4.8950  -46.9480   10.3070 H   0  0  0  0  0  0  0  0  0  0  0  0
   -6.6760  -45.5450    9.3020 H   0  0  0  0  0  0  0  0  0  0  0  0
    1.7160  -51.7680    7.4850 C   0  0  0  0  0  0  0  0  0  0  0  0
    1.4700  -52.7680    7.0280 H   0  0  0  0  0  0  0  0  0  0  0  0
    2.8250  -51.6260    7.4310 H   0  0  0  0  0  0  0  0  0  0  0  0
    1.4110  -51.8130    8.5690 H   0  0  0  0  0  0  0  0  0  0  0  0
    0.9830  -50.7020    6.7910 N   0  0  0  0  0  0  0  0  0  0  0  0
  1  2  2  0  0  0  0
  2  3  1  0  0  0  0
  2  4  1  0  0  0  0
  4 11  2  0  0  0  0
  4 47  1  0  0  0  0
  5  6  2  0  0  0  0
  5 10  1  0  0  0  0
  5 47  1  0  0  0  0
  6  7  1  0  0  0  0
  6 20  1  0  0  0  0
  7  8  2  0  0  0  0
  7 21  1  0  0  0  0
  8  9  1  0  0  0  0
  8 22  1  0  0  0  0
  9 10  2  0  0  0  0
  9 23  1  0  0  0  0
 10 11  1  0  0  0  0
 11 12  1  0  0  0  0
 12 24  1  0  0  0  0
 12 25  1  0  0  0  0
 12 13  1  0  0  0  0
 13 14  1  0  0  0  0
 13 26  1  0  0  0  0
 13 27  1  0  0  0  0
 14 15  1  0  0  0  0
 14 28  1  0  0  0  0
 14 29  1  0  0  0  0
 15 16  1  0  0  0  0
 16 19  2  0  0  0  0
 16 32  1  0  0  0  0
 17 18  2  0  0  0  0
 17 31  1  0  0  0  0
 17 42  1  0  0  0  0
 18 19  1  0  0  0  0
 18 41  1  0  0  0  0
 19 30  1  0  0  0  0
 31 32  2  0  0  0  0
 31 36  1  0  0  0  0
 32 33  1  0  0  0  0
 33 34  2  0  0  0  0
 33 37  1  0  0  0  0
 34 35  1  0  0  0  0
 34 38  1  0  0  0  0
 35 36  2  0  0  0  0
 35 39  1  0  0  0  0
 36 40  1  0  0  0  0
 43 44  1  0  0  0  0
 43 45  1  0  0  0  0
 43 46  1  0  0  0  0
 43 47  1  0  0  0  0
M  CHG  1   3  -1
M  END
$$$$
