p38a_3flw
 OpenBabel02232411163D
Structure written by MMmdl.
 49 51  0  0  0  0  0  0  0  0999 V2000
   38.2540   36.5280   17.1470 C   0  0  0  0  0  0  0  0  0  0  0  0
   37.6270   36.7060   15.9060 C   0  0  0  0  0  0  0  0  0  0  0  0
   34.5810   39.7850   27.3930 C   0  0  0  0  0  0  0  0  0  0  0  0
   34.3780   39.0090   28.7010 C   0  0  0  0  0  0  0  0  0  0  0  0
   32.2370   39.3910   26.4470 C   0  0  0  0  0  0  0  0  0  0  0  0
   34.1940   35.0790   23.7170 C   0  0  0  0  0  0  0  0  0  0  0  0
   37.9600   35.9190   19.4010 F   0  0  0  0  0  0  0  0  0  0  0  0
   37.4480   36.0720   18.1860 C   0  0  0  0  0  0  0  0  0  0  0  0
   38.3460   37.2080   14.9040 F   0  0  0  0  0  0  0  0  0  0  0  0
   36.2780   36.4250   15.6760 C   0  0  0  0  0  0  0  0  0  0  0  0
   35.4920   35.9560   16.7340 C   0  0  0  0  0  0  0  0  0  0  0  0
   36.0830   35.7730   17.9870 C   0  0  0  0  0  0  0  0  0  0  0  0
   35.3280   35.1660   19.0010 O   0  0  0  0  0  0  0  0  0  0  0  0
   35.0080   35.9900   20.0790 C   0  0  0  0  0  0  0  0  0  0  0  0
   35.0200   37.3430   20.1030 C   0  0  0  0  0  0  0  0  0  0  0  0
   34.7190   38.0150   21.3370 C   0  0  0  0  0  0  0  0  0  0  0  0
   34.6660   39.4280   21.4580 C   0  0  0  0  0  0  0  0  0  0  0  0
   34.4580   40.0540   22.6280 N   0  0  0  0  0  0  0  0  0  0  0  0
   34.6070   35.1370   21.2280 C   0  0  0  0  0  0  0  0  0  0  0  0
   34.4300   33.9390   21.1960 O   0  0  0  0  0  0  0  0  0  0  0  0
   34.4230   35.8550   22.4660 N   0  0  0  0  0  0  0  0  0  0  0  0
   34.4760   37.2540   22.5190 C   0  0  0  0  0  0  0  0  0  0  0  0
   34.2650   37.8640   23.7310 N   0  0  0  0  0  0  0  0  0  0  0  0
   34.2990   39.2440   23.7670 C   0  0  0  0  0  0  0  0  0  0  0  0
   34.2210   39.8780   24.9890 N   0  0  0  0  0  0  0  0  0  0  0  0
   33.7540   39.1850   26.2300 C   0  0  0  0  0  0  0  0  0  0  0  0
   31.3370   39.0040   25.2640 C   0  0  0  0  0  0  0  0  0  0  0  0
   31.4540   37.6250   24.8920 O   0  0  0  0  0  0  0  0  0  0  0  0
   35.3080   39.4440   29.7100 O   0  0  0  0  0  0  0  0  0  0  0  0
   39.3090   36.7730   17.2990 H   0  0  0  0  0  0  0  0  0  0  0  0
   34.2960   40.8560   27.5440 H   0  0  0  0  0  0  0  0  0  0  0  0
   35.6610   39.7600   27.1060 H   0  0  0  0  0  0  0  0  0  0  0  0
   33.3890   39.2400   29.1630 H   0  0  0  0  0  0  0  0  0  0  0  0
   34.5080   37.9130   28.5420 H   0  0  0  0  0  0  0  0  0  0  0  0
   31.9410   38.7860   27.3410 H   0  0  0  0  0  0  0  0  0  0  0  0
   32.0530   40.4690   26.6810 H   0  0  0  0  0  0  0  0  0  0  0  0
   34.8110   35.5030   24.5550 H   0  0  0  0  0  0  0  0  0  0  0  0
   33.1110   35.1300   24.0070 H   0  0  0  0  0  0  0  0  0  0  0  0
   34.4840   34.0060   23.5630 H   0  0  0  0  0  0  0  0  0  0  0  0
   35.8250   36.5840   14.6960 H   0  0  0  0  0  0  0  0  0  0  0  0
   34.4280   35.7510   16.5750 H   0  0  0  0  0  0  0  0  0  0  0  0
   35.2650   37.9510   19.2300 H   0  0  0  0  0  0  0  0  0  0  0  0
   34.7840   40.0640   20.5650 H   0  0  0  0  0  0  0  0  0  0  0  0
   34.0780   40.9090   25.0140 H   0  0  0  0  0  0  0  0  0  0  0  0
   33.9810   38.0870   26.1550 H   0  0  0  0  0  0  0  0  0  0  0  0
   30.2650   39.0970   25.5560 H   0  0  0  0  0  0  0  0  0  0  0  0
   31.5670   39.6340   24.3760 H   0  0  0  0  0  0  0  0  0  0  0  0
   32.4010   37.4420   24.6800 H   0  0  0  0  0  0  0  0  0  0  0  0
   36.2320   39.3270   29.3720 H   0  0  0  0  0  0  0  0  0  0  0  0
  1  2  2  0  0  0  0
  1  8  1  0  0  0  0
  1 30  1  0  0  0  0
  2  9  1  0  0  0  0
  2 10  1  0  0  0  0
  3  4  1  0  0  0  0
  3 26  1  0  0  0  0
  3 31  1  0  0  0  0
  3 32  1  0  0  0  0
  4 29  1  0  0  0  0
  4 33  1  0  0  0  0
  4 34  1  0  0  0  0
  5 26  1  0  0  0  0
  5 27  1  0  0  0  0
  5 35  1  0  0  0  0
  5 36  1  0  0  0  0
  6 21  1  0  0  0  0
  6 37  1  0  0  0  0
  6 38  1  0  0  0  0
  6 39  1  0  0  0  0
  7  8  1  0  0  0  0
  8 12  2  0  0  0  0
 10 11  2  0  0  0  0
 10 40  1  0  0  0  0
 11 12  1  0  0  0  0
 11 41  1  0  0  0  0
 12 13  1  0  0  0  0
 13 14  1  0  0  0  0
 14 15  2  0  0  0  0
 14 19  1  0  0  0  0
 15 16  1  0  0  0  0
 15 42  1  0  0  0  0
 16 17  2  0  0  0  0
 16 22  1  0  0  0  0
 17 18  1  0  0  0  0
 17 43  1  0  0  0  0
 18 24  2  0  0  0  0
 19 20  2  0  0  0  0
 19 21  1  0  0  0  0
 21 22  1  0  0  0  0
 22 23  2  0  0  0  0
 23 24  1  0  0  0  0
 24 25  1  0  0  0  0
 25 26  1  0  0  0  0
 25 44  1  0  0  0  0
 26 45  1  0  0  0  0
 27 28  1  0  0  0  0
 27 46  1  0  0  0  0
 27 47  1  0  0  0  0
 28 48  1  0  0  0  0
 29 49  1  0  0  0  0
M  END
$$$$
