p38a_2s
 OpenBabel02232411163D
Structure written by MMmdl.
 54 57  0  0  1  0  0  0  0  0999 V2000
   38.2360   36.4840   17.2450 C   0  0  0  0  0  0  0  0  0  0  0  0
   34.4840   35.0880   21.3270 C   0  0  0  0  0  0  0  0  0  0  0  0
   37.4460   36.0440   18.3030 C   0  0  0  0  0  0  0  0  0  0  0  0
   33.8960   39.1960   23.8140 C   0  0  0  0  0  0  0  0  0  0  0  0
   34.6090   37.9640   21.4500 C   0  0  0  0  0  0  0  0  0  0  0  0
   35.0020   37.2930   20.2430 C   0  0  0  0  0  0  0  0  0  0  0  0
   37.5960   36.6280   16.0060 C   0  0  0  0  0  0  0  0  0  0  0  0
   36.2480   36.3270   15.7970 C   0  0  0  0  0  0  0  0  0  0  0  0
   35.4780   35.8760   16.8740 C   0  0  0  0  0  0  0  0  0  0  0  0
   34.2120   37.2100   22.5950 C   0  0  0  0  0  0  0  0  0  0  0  0
   34.6110   39.3790   21.5850 C   0  0  0  0  0  0  0  0  0  0  0  0
   34.9770   35.9410   20.2130 C   0  0  0  0  0  0  0  0  0  0  0  0
   36.0820   35.7250   18.1260 C   0  0  0  0  0  0  0  0  0  0  0  0
   37.9750   35.9190   19.5130 F   0  0  0  0  0  0  0  0  0  0  0  0
   35.3530   35.1120   19.1540 O   0  0  0  0  0  0  0  0  0  0  0  0
   34.2680   40.0070   22.7180 N   0  0  0  0  0  0  0  0  0  0  0  0
   34.3680   33.8820   21.2930 O   0  0  0  0  0  0  0  0  0  0  0  0
   34.1450   35.8030   22.5300 N   0  0  0  0  0  0  0  0  0  0  0  0
   33.9190   37.8180   23.7860 N   0  0  0  0  0  0  0  0  0  0  0  0
   33.4850   39.8420   24.9540 N   0  0  0  0  0  0  0  0  0  0  0  0
   39.2910   36.7420   17.3780 H   0  0  0  0  0  0  0  0  0  0  0  0
   35.3210   37.9010   19.3920 H   0  0  0  0  0  0  0  0  0  0  0  0
   35.7840   36.4560   14.8160 H   0  0  0  0  0  0  0  0  0  0  0  0
   34.4150   35.6600   16.7310 H   0  0  0  0  0  0  0  0  0  0  0  0
   34.8910   40.0090   20.7250 H   0  0  0  0  0  0  0  0  0  0  0  0
   33.5730   40.8750   25.0120 H   0  0  0  0  0  0  0  0  0  0  0  0
   38.3020   37.1140   14.9880 F   0  0  0  0  0  0  0  0  0  0  0  0
   33.2080   37.6730   28.1250 C   0  0  0  0  0  0  0  0  0  0  0  0
   33.8920   38.3400   26.9270 C   0  0  0  0  0  0  0  0  0  0  0  0
   32.8700   39.1990   26.1540 C   0  0  0  0  0  0  0  0  0  0  0  0
   31.6250   38.3670   25.7940 C   0  0  0  0  0  0  0  0  0  0  0  0
   31.0460   37.7070   27.0470 C   0  0  0  0  0  0  0  0  0  0  0  0
   32.0490   36.9080   27.7170 O   0  0  0  0  0  0  0  0  0  0  0  0
   32.8890   38.4290   28.8790 H   0  0  0  0  0  0  0  0  0  0  0  0
   33.8590   36.8910   28.5790 H   0  0  0  0  0  0  0  0  0  0  0  0
   34.3180   37.5550   26.2570 H   0  0  0  0  0  0  0  0  0  0  0  0
   34.7300   38.9850   27.2890 H   0  0  0  0  0  0  0  0  0  0  0  0
   32.5540   40.0680   26.8060 H   0  0  0  0  0  0  0  0  0  0  0  0
   30.8560   39.0090   25.3120 H   0  0  0  0  0  0  0  0  0  0  0  0
   31.9040   37.5350   25.0810 H   0  0  0  0  0  0  0  0  0  0  0  0
   30.6330   38.4500   27.7610 H   0  0  0  0  0  0  0  0  0  0  0  0
   30.2940   36.9330   26.7710 H   0  0  0  0  0  0  0  0  0  0  0  0
   33.6240   35.0390   23.7010 C   0  0  0  0  0  0  0  0  0  0  0  0
   34.1270   34.0340   23.7290 H   0  0  0  0  0  0  0  0  0  0  0  0
   33.8630   35.6060   24.6500 H   0  0  0  0  0  0  0  0  0  0  0  0
   32.0950   34.8300   23.6610 C   0  0  2  0  0  0  0  0  0  0  0  0
   31.5110   36.1500   23.6780 O   0  0  0  0  0  0  0  0  0  0  0  0
   30.5620   36.1040   23.4330 H   0  0  0  0  0  0  0  0  0  0  0  0
   31.6190   34.0900   24.9360 C   0  0  0  0  0  0  0  0  0  0  0  0
   31.8810   33.0050   24.8970 H   0  0  0  0  0  0  0  0  0  0  0  0
   30.5200   34.2330   25.0660 H   0  0  0  0  0  0  0  0  0  0  0  0
   31.7550   34.3010   22.7410 H   0  0  0  0  0  0  0  0  0  0  0  0
   32.2900   34.5640   26.1030 O   0  0  0  0  0  0  0  0  0  0  0  0
   32.1870   35.5630   26.1640 H   0  0  0  0  0  0  0  0  0  0  0  0
  1  3  2  0  0  0  0
  1  7  1  0  0  0  0
  1 21  1  0  0  0  0
  2 12  1  0  0  0  0
  2 17  2  0  0  0  0
  2 18  1  0  0  0  0
  3 13  1  0  0  0  0
  3 14  1  0  0  0  0
  4 16  2  0  0  0  0
  4 19  1  0  0  0  0
  4 20  1  0  0  0  0
  5  6  1  0  0  0  0
  5 10  1  0  0  0  0
  5 11  2  0  0  0  0
  6 12  2  0  0  0  0
  6 22  1  0  0  0  0
  7  8  2  0  0  0  0
  7 27  1  0  0  0  0
  8  9  1  0  0  0  0
  8 23  1  0  0  0  0
  9 13  2  0  0  0  0
  9 24  1  0  0  0  0
 10 18  1  0  0  0  0
 10 19  2  0  0  0  0
 11 16  1  0  0  0  0
 11 25  1  0  0  0  0
 12 15  1  0  0  0  0
 13 15  1  0  0  0  0
 18 43  1  0  0  0  0
 20 26  1  0  0  0  0
 20 30  1  0  0  0  0
 28 29  1  0  0  0  0
 28 33  1  0  0  0  0
 28 34  1  0  0  0  0
 28 35  1  0  0  0  0
 29 30  1  0  0  0  0
 29 36  1  0  0  0  0
 29 37  1  0  0  0  0
 30 31  1  0  0  0  0
 30 38  1  0  0  0  0
 31 32  1  0  0  0  0
 31 39  1  0  0  0  0
 31 40  1  0  0  0  0
 32 33  1  0  0  0  0
 32 41  1  0  0  0  0
 32 42  1  0  0  0  0
 43 44  1  0  0  0  0
 43 45  1  0  0  0  0
 43 46  1  0  0  0  0
 46 47  1  0  0  0  0
 46 49  1  0  0  0  0
 46 52  1  1  0  0  0
 47 48  1  0  0  0  0
 49 50  1  0  0  0  0
 49 51  1  0  0  0  0
 49 53  1  0  0  0  0
 53 54  1  0  0  0  0
M  END
$$$$
