3fmk
                    3D
 Schrodinger Suite 2022-3.
 46 49  0  0  1  0  0  0  0  0999 V2000
   15.9120   10.5320   31.6740 C   0  0  0  0  0  0  0  0  0  0  0  0
   21.3070   12.5220   31.3320 C   0  0  0  0  0  0  0  0  0  0  0  0
   17.1980   11.0490   31.8030 C   0  0  0  0  0  0  0  0  0  0  0  0
   23.7470    8.3570   31.2080 C   0  0  0  0  0  0  0  0  0  0  0  0
   26.0980    8.1910   32.1060 C   0  0  1  0  0  0  0  0  0  0  0  0
   21.4090    9.7080   30.7320 C   0  0  0  0  0  0  0  0  0  0  0  0
   20.1570   10.4040   30.6350 C   0  0  0  0  0  0  0  0  0  0  0  0
   15.2260   10.8380   30.4920 C   0  0  0  0  0  0  0  0  0  0  0  0
   15.7690   11.6240   29.4740 C   0  0  0  0  0  0  0  0  0  0  0  0
   17.0550   12.1500   29.6330 C   0  0  0  0  0  0  0  0  0  0  0  0
   22.5560   10.3770   31.2540 C   0  0  0  0  0  0  0  0  0  0  0  0
   21.5680    8.3490   30.3540 C   0  0  0  0  0  0  0  0  0  0  0  0
   20.1120   11.7140   30.9700 C   0  0  0  0  0  0  0  0  0  0  0  0
   17.7620   11.8740   30.8070 C   0  0  0  0  0  0  0  0  0  0  0  0
   23.7400   12.4360   32.0120 C   0  0  0  0  0  0  0  0  0  0  0  0
   17.9220   10.7500   32.8740 F   0  0  0  0  0  0  0  0  0  0  0  0
   14.0080   10.3290   30.3230 F   0  0  0  0  0  0  0  0  0  0  0  0
   18.9840   12.5280   31.0220 O   0  0  0  0  0  0  0  0  0  0  0  0
   22.7010    7.6650   30.5720 N   0  0  0  0  0  0  0  0  0  0  0  0
   21.3380   13.7240   31.4720 O   0  0  0  0  0  0  0  0  0  0  0  0
   22.5060   11.7510   31.5300 N   0  0  0  0  0  0  0  0  0  0  0  0
   23.7300    9.7030   31.4940 N   0  0  0  0  0  0  0  0  0  0  0  0
   24.8260    7.5930   31.6180 N   0  0  0  0  0  0  0  0  0  0  0  0
   15.2160   11.8170   28.5530 H   0  0  0  0  0  0  0  0  0  0  0  0
   17.5010   12.7590   28.8400 H   0  0  0  0  0  0  0  0  0  0  0  0
   15.4800    9.8880   32.4410 H   0  0  0  0  0  0  0  0  0  0  0  0
   19.2830    9.8430   30.3040 H   0  0  0  0  0  0  0  0  0  0  0  0
   20.7450    7.8140   29.8550 H   0  0  0  0  0  0  0  0  0  0  0  0
   25.8850    9.1670   32.6240 H   0  0  0  0  0  0  0  0  0  0  0  0
   24.1750   11.8710   32.8810 H   0  0  0  0  0  0  0  0  0  0  0  0
   24.5040   12.4620   31.1870 H   0  0  0  0  0  0  0  0  0  0  0  0
   23.5020   13.4820   32.3310 H   0  0  0  0  0  0  0  0  0  0  0  0
   24.9470    6.6470   31.1960 H   0  0  0  0  0  0  0  0  0  0  0  0
   26.7300    7.2000   33.0840 C   0  0  0  0  0  0  0  0  0  0  0  0
   27.0280    6.2570   32.5640 H   0  0  0  0  0  0  0  0  0  0  0  0
   27.6310    7.6410   33.5620 H   0  0  0  0  0  0  0  0  0  0  0  0
   25.9990    6.9360   33.8860 H   0  0  0  0  0  0  0  0  0  0  0  0
   27.0130    8.4510   30.8640 C   0  0  0  0  0  0  0  0  0  0  0  0
   27.3110    7.4630   30.4100 H   0  0  0  0  0  0  0  0  0  0  0  0
   26.4440    9.0490   30.0970 H   0  0  0  0  0  0  0  0  0  0  0  0
   28.2250    9.2050   31.2420 N   0  0  3  0  0  0  0  0  0  0  0  0
   29.4610    8.6400   31.3130 N   0  0  0  0  0  0  0  0  0  0  0  0
   30.2690    9.6520   31.7380 C   0  0  0  0  0  0  0  0  0  0  0  0
   29.4840   10.8200   31.9290 N   0  0  0  0  0  0  0  0  0  0  0  0
   28.2600   10.5230   31.6240 N   0  0  0  0  0  0  0  0  0  0  0  0
   31.3410    9.5880   31.9070 H   0  0  0  0  0  0  0  0  0  0  0  0
  1  3  1  0  0  0  0
  1  8  2  0  0  0  0
  1 26  1  0  0  0  0
  2 13  1  0  0  0  0
  2 20  2  0  0  0  0
  2 21  1  0  0  0  0
  3 14  2  0  0  0  0
  3 16  1  0  0  0  0
  4 19  1  0  0  0  0
  4 22  2  0  0  0  0
  4 23  1  0  0  0  0
  5 23  1  0  0  0  0
  5 29  1  0  0  0  0
  5 34  1  0  0  0  0
  5 38  1  0  0  0  0
  6  7  1  0  0  0  0
  6 11  2  0  0  0  0
  6 12  1  0  0  0  0
  7 13  2  0  0  0  0
  7 27  1  0  0  0  0
  8  9  1  0  0  0  0
  8 17  1  0  0  0  0
  9 10  2  0  0  0  0
  9 24  1  0  0  0  0
 10 14  1  0  0  0  0
 10 25  1  0  0  0  0
 11 21  1  0  0  0  0
 11 22  1  0  0  0  0
 12 19  2  0  0  0  0
 12 28  1  0  0  0  0
 13 18  1  0  0  0  0
 14 18  1  0  0  0  0
 15 21  1  0  0  0  0
 15 30  1  0  0  0  0
 15 31  1  0  0  0  0
 15 32  1  0  0  0  0
 23 33  1  0  0  0  0
 34 35  1  0  0  0  0
 34 36  1  0  0  0  0
 34 37  1  0  0  0  0
 38 39  1  0  0  0  0
 38 40  1  0  0  0  0
 38 41  1  0  0  0  0
 41 42  1  0  0  0  0
 41 45  1  0  0  0  0
 42 43  2  0  0  0  0
 43 44  1  0  0  0  0
 43 46  1  0  0  0  0
 44 45  2  0  0  0  0
M  END
$$$$
