18634-1
 OpenBabel02232411163D
Structure written by MMmdl.
 46 47  0  0  0  0  0  0  0  0999 V2000
   23.8350   12.6610   30.3450 C   0  0  0  0  0  0  0  0  0  0  0  0
   23.3940   11.2140   30.4600 C   0  0  0  0  0  0  0  0  0  0  0  0
   22.1440   11.3050   31.2550 O   0  0  0  0  0  0  0  0  0  0  0  0
   21.5090   10.1620   31.5910 C   0  0  0  0  0  0  0  0  0  0  0  0
   21.9850    8.9760   31.1450 N   0  0  0  0  0  0  0  0  0  0  0  0
   21.2500    7.8370   31.4500 C   0  0  0  0  0  0  0  0  0  0  0  0
   20.0960    7.8740   32.2280 C   0  0  0  0  0  0  0  0  0  0  0  0
   19.6160    9.1210   32.7070 C   0  0  0  0  0  0  0  0  0  0  0  0
   18.4760    9.1600   33.4700 N   0  0  0  0  0  0  0  0  0  0  0  0
   20.3230   10.3190   32.3700 C   0  0  0  0  0  0  0  0  0  0  0  0
   19.8990   11.6180   32.7210 C   0  0  0  0  0  0  0  0  0  0  0  0
   19.5960   12.7110   32.9640 N   0  0  0  0  0  0  0  0  0  0  0  0
   21.8050    6.6790   30.8650 N   0  0  0  0  0  0  0  0  0  0  0  0
   21.1970    5.4040   30.7800 C   0  0  0  0  0  0  0  0  0  0  0  0
   20.1250    5.1540   31.2910 O   0  0  0  0  0  0  0  0  0  0  0  0
   21.9820    4.4150   29.9300 C   0  0  0  0  0  0  0  0  0  0  0  0
   23.3000    4.0410   30.5420 C   0  0  0  0  0  0  0  0  0  0  0  0
   24.4450    4.8480   30.3300 C   0  0  0  0  0  0  0  0  0  0  0  0
   24.1990    5.9350   29.4970 O   0  0  0  0  0  0  0  0  0  0  0  0
   25.2450    6.9330   29.3650 C   0  0  0  0  0  0  0  0  0  0  0  0
   25.6830    4.5350   30.9020 C   0  0  0  0  0  0  0  0  0  0  0  0
   25.8020    3.3970   31.6950 C   0  0  0  0  0  0  0  0  0  0  0  0
   24.6740    2.5790   31.8930 C   0  0  0  0  0  0  0  0  0  0  0  0
   23.4320    2.8870   31.3190 C   0  0  0  0  0  0  0  0  0  0  0  0
   24.9330    1.4980   32.7110 O   0  0  0  0  0  0  0  0  0  0  0  0
   23.9270    0.4560   32.7950 C   0  0  0  0  0  0  0  0  0  0  0  0
   24.0460   13.1020   31.3450 H   0  0  0  0  0  0  0  0  0  0  0  0
   23.0570   13.2780   29.8370 H   0  0  0  0  0  0  0  0  0  0  0  0
   24.7680   12.7030   29.7300 H   0  0  0  0  0  0  0  0  0  0  0  0
   23.1360   10.7690   29.4720 H   0  0  0  0  0  0  0  0  0  0  0  0
   24.1220   10.5890   31.0240 H   0  0  0  0  0  0  0  0  0  0  0  0
   19.5410    6.9620   32.4590 H   0  0  0  0  0  0  0  0  0  0  0  0
   18.0730   10.0450   33.7790 H   0  0  0  0  0  0  0  0  0  0  0  0
   17.9710    8.2890   33.7220 H   0  0  0  0  0  0  0  0  0  0  0  0
   22.7300    6.8150   30.3840 H   0  0  0  0  0  0  0  0  0  0  0  0
   21.3590    3.4960   29.7820 H   0  0  0  0  0  0  0  0  0  0  0  0
   22.1650    4.8850   28.9240 H   0  0  0  0  0  0  0  0  0  0  0  0
   26.1130    6.4940   28.8290 H   0  0  0  0  0  0  0  0  0  0  0  0
   24.7360    7.7080   28.7480 H   0  0  0  0  0  0  0  0  0  0  0  0
   25.5270    7.3340   30.3620 H   0  0  0  0  0  0  0  0  0  0  0  0
   26.5640    5.1590   30.7310 H   0  0  0  0  0  0  0  0  0  0  0  0
   26.7640    3.1420   32.1500 H   0  0  0  0  0  0  0  0  0  0  0  0
   22.5710    2.2360   31.4760 H   0  0  0  0  0  0  0  0  0  0  0  0
   23.7260    0.0410   31.7840 H   0  0  0  0  0  0  0  0  0  0  0  0
   23.0080    0.8450   33.2820 H   0  0  0  0  0  0  0  0  0  0  0  0
   24.4370   -0.2960   33.4430 H   0  0  0  0  0  0  0  0  0  0  0  0
  1  2  1  0  0  0  0
  1 27  1  0  0  0  0
  1 28  1  0  0  0  0
  1 29  1  0  0  0  0
  2  3  1  0  0  0  0
  2 30  1  0  0  0  0
  2 31  1  0  0  0  0
  3  4  1  0  0  0  0
  4 10  2  0  0  0  0
  4  5  1  0  0  0  0
  5  6  2  0  0  0  0
  6  7  1  0  0  0  0
  6 13  1  0  0  0  0
  7  8  2  0  0  0  0
  7 32  1  0  0  0  0
  8  9  1  0  0  0  0
  8 10  1  0  0  0  0
  9 33  1  0  0  0  0
  9 34  1  0  0  0  0
 10 11  1  0  0  0  0
 11 12  3  0  0  0  0
 13 14  1  0  0  0  0
 13 35  1  0  0  0  0
 14 15  2  0  0  0  0
 14 16  1  0  0  0  0
 16 17  1  0  0  0  0
 16 36  1  0  0  0  0
 16 37  1  0  0  0  0
 17 24  2  0  0  0  0
 17 18  1  0  0  0  0
 18 19  1  0  0  0  0
 18 21  2  0  0  0  0
 19 20  1  0  0  0  0
 20 38  1  0  0  0  0
 20 39  1  0  0  0  0
 20 40  1  0  0  0  0
 21 22  1  0  0  0  0
 21 41  1  0  0  0  0
 22 23  2  0  0  0  0
 22 42  1  0  0  0  0
 23 24  1  0  0  0  0
 23 25  1  0  0  0  0
 24 43  1  0  0  0  0
 25 26  1  0  0  0  0
 26 44  1  0  0  0  0
 26 45  1  0  0  0  0
 26 46  1  0  0  0  0
M  END
$$$$
