53
 OpenBabel02232411163D
Structure written by MMmdl.
 44 46  0  0  0  0  0  0  0  0999 V2000
    3.5170  -48.1190    7.2330 O   0  0  0  0  0  0  0  0  0  0  0  0
    3.1970  -49.1200    6.5810 C   0  0  0  0  0  0  0  0  0  0  0  0
    3.9590  -49.9660    6.0740 O   0  5  0  0  0  0  0  0  0  0  0  0
    1.6930  -49.3860    6.3820 C   0  0  0  0  0  0  0  0  0  0  0  0
   -0.2050  -50.6570    6.4350 C   0  0  0  0  0  0  0  0  0  0  0  0
   -1.1650  -51.6700    6.6030 C   0  0  0  0  0  0  0  0  0  0  0  0
   -2.4530  -51.3330    6.2310 C   0  0  0  0  0  0  0  0  0  0  0  0
   -2.8330  -50.0790    5.7150 C   0  0  0  0  0  0  0  0  0  0  0  0
   -1.8770  -49.0840    5.5560 C   0  0  0  0  0  0  0  0  0  0  0  0
   -0.5470  -49.3520    5.9160 C   0  0  0  0  0  0  0  0  0  0  0  0
    0.6710  -48.5730    5.9070 C   0  0  0  0  0  0  0  0  0  0  0  0
    0.7260  -47.1520    5.4760 C   0  0  0  0  0  0  0  0  0  0  0  0
    0.6060  -46.1770    6.6610 C   0  0  0  0  0  0  0  0  0  0  0  0
   -0.7300  -46.2620    7.3950 C   0  0  0  0  0  0  0  0  0  0  0  0
   -1.7030  -45.7170    6.4290 O   0  0  0  0  0  0  0  0  0  0  0  0
   -2.9740  -45.4860    6.8520 C   0  0  0  0  0  0  0  0  0  0  0  0
   -3.4950  -45.8780    8.0950 C   0  0  0  0  0  0  0  0  0  0  0  0
   -4.8240  -45.5640    8.4060 C   0  0  0  0  0  0  0  0  0  0  0  0
   -5.4090  -45.9510    9.7240 C   0  0  0  0  0  0  0  0  0  0  0  0
   -5.5990  -44.8840    7.4540 C   0  0  0  0  0  0  0  0  0  0  0  0
   -7.2540  -44.5560    7.8170 Cl  0  0  0  0  0  0  0  0  0  0  0  0
   -5.0900  -44.4930    6.2000 C   0  0  0  0  0  0  0  0  0  0  0  0
   -5.9620  -43.8220    5.1910 C   0  0  0  0  0  0  0  0  0  0  0  0
   -3.7630  -44.7980    5.9050 C   0  0  0  0  0  0  0  0  0  0  0  0
   -0.9110  -52.6530    7.0000 H   0  0  0  0  0  0  0  0  0  0  0  0
   -3.6940  -52.5470    6.3700 Cl  0  0  0  0  0  0  0  0  0  0  0  0
   -3.8740  -49.8990    5.4420 H   0  0  0  0  0  0  0  0  0  0  0  0
   -2.1670  -48.1080    5.1590 H   0  0  0  0  0  0  0  0  0  0  0  0
   -0.1300  -46.9560    4.7820 H   0  0  0  0  0  0  0  0  0  0  0  0
    1.6800  -46.9350    4.9380 H   0  0  0  0  0  0  0  0  0  0  0  0
    0.7220  -45.1350    6.2830 H   0  0  0  0  0  0  0  0  0  0  0  0
    1.4130  -46.4050    7.4000 H   0  0  0  0  0  0  0  0  0  0  0  0
   -0.7510  -45.6020    8.2890 H   0  0  0  0  0  0  0  0  0  0  0  0
   -1.0470  -47.3050    7.6090 H   0  0  0  0  0  0  0  0  0  0  0  0
   -2.9030  -46.4360    8.8140 H   0  0  0  0  0  0  0  0  0  0  0  0
   -5.8840  -45.0700   10.2200 H   0  0  0  0  0  0  0  0  0  0  0  0
   -6.2020  -46.7250    9.5760 H   0  0  0  0  0  0  0  0  0  0  0  0
   -4.6370  -46.3740   10.4050 H   0  0  0  0  0  0  0  0  0  0  0  0
   -5.3660  -43.4830    4.3120 H   0  0  0  0  0  0  0  0  0  0  0  0
   -6.7410  -44.5440    4.8390 H   0  0  0  0  0  0  0  0  0  0  0  0
   -6.4800  -42.9390    5.6290 H   0  0  0  0  0  0  0  0  0  0  0  0
   -3.3340  -44.5220    4.9460 H   0  0  0  0  0  0  0  0  0  0  0  0
    1.1670  -50.6530    6.7080 N   0  0  0  0  0  0  0  0  0  0  0  0
    1.6680  -51.4540    7.0740 H   0  0  0  0  0  0  0  0  0  0  0  0
  1  2  2  0  0  0  0
  2  3  1  0  0  0  0
  2  4  1  0  0  0  0
  4 11  2  0  0  0  0
  4 43  1  0  0  0  0
  5  6  2  0  0  0  0
  5 10  1  0  0  0  0
  5 43  1  0  0  0  0
  6  7  1  0  0  0  0
  6 25  1  0  0  0  0
  7  8  2  0  0  0  0
  7 26  1  0  0  0  0
  8  9  1  0  0  0  0
  8 27  1  0  0  0  0
  9 10  2  0  0  0  0
  9 28  1  0  0  0  0
 10 11  1  0  0  0  0
 11 12  1  0  0  0  0
 12 29  1  0  0  0  0
 12 30  1  0  0  0  0
 12 13  1  0  0  0  0
 13 14  1  0  0  0  0
 13 31  1  0  0  0  0
 13 32  1  0  0  0  0
 14 15  1  0  0  0  0
 14 33  1  0  0  0  0
 14 34  1  0  0  0  0
 15 16  1  0  0  0  0
 16 17  2  0  0  0  0
 16 24  1  0  0  0  0
 17 18  1  0  0  0  0
 17 35  1  0  0  0  0
 18 19  1  0  0  0  0
 18 20  2  0  0  0  0
 19 36  1  0  0  0  0
 19 37  1  0  0  0  0
 19 38  1  0  0  0  0
 20 21  1  0  0  0  0
 20 22  1  0  0  0  0
 22 23  1  0  0  0  0
 22 24  2  0  0  0  0
 23 39  1  0  0  0  0
 23 40  1  0  0  0  0
 23 41  1  0  0  0  0
 24 42  1  0  0  0  0
 43 44  1  0  0  0  0
M  CHG  1   3  -1
M  END
$$$$
