18659-1
 OpenBabel02232411163D
Structure written by MMmdl.
 50 51  0  0  0  0  0  0  0  0999 V2000
   22.6800   13.9040   28.8470 C   0  0  0  0  0  0  0  0  0  0  0  0
   23.0350   13.6900   30.2300 O   0  0  0  0  0  0  0  0  0  0  0  0
   23.9360   12.5930   30.4440 C   0  0  0  0  0  0  0  0  0  0  0  0
   23.2720   11.2120   30.3420 C   0  0  0  0  0  0  0  0  0  0  0  0
   22.1230   11.2850   31.2610 O   0  0  0  0  0  0  0  0  0  0  0  0
   21.4990   10.1320   31.5980 C   0  0  0  0  0  0  0  0  0  0  0  0
   21.9600    8.9530   31.1210 N   0  0  0  0  0  0  0  0  0  0  0  0
   21.2440    7.8090   31.4480 C   0  0  0  0  0  0  0  0  0  0  0  0
   20.1090    7.8380   32.2530 C   0  0  0  0  0  0  0  0  0  0  0  0
   19.6370    9.0810   32.7510 C   0  0  0  0  0  0  0  0  0  0  0  0
   18.4990    9.1140   33.5170 N   0  0  0  0  0  0  0  0  0  0  0  0
   20.3430   10.2820   32.4210 C   0  0  0  0  0  0  0  0  0  0  0  0
   19.9420   11.5770   32.8130 C   0  0  0  0  0  0  0  0  0  0  0  0
   19.6610   12.6670   33.0900 N   0  0  0  0  0  0  0  0  0  0  0  0
   21.7960    6.6530   30.8550 N   0  0  0  0  0  0  0  0  0  0  0  0
   21.2030    5.3710   30.7870 C   0  0  0  0  0  0  0  0  0  0  0  0
   20.1410    5.1090   31.3120 O   0  0  0  0  0  0  0  0  0  0  0  0
   21.9930    4.3880   29.9340 C   0  0  0  0  0  0  0  0  0  0  0  0
   23.3270    4.0450   30.5300 C   0  0  0  0  0  0  0  0  0  0  0  0
   24.4530    4.8720   30.2990 C   0  0  0  0  0  0  0  0  0  0  0  0
   24.1790    5.9490   29.4630 O   0  0  0  0  0  0  0  0  0  0  0  0
   25.1910    6.9830   29.3440 C   0  0  0  0  0  0  0  0  0  0  0  0
   25.7040    4.5840   30.8560 C   0  0  0  0  0  0  0  0  0  0  0  0
   25.8550    3.4530   31.6540 C   0  0  0  0  0  0  0  0  0  0  0  0
   24.7440    2.6150   31.8710 C   0  0  0  0  0  0  0  0  0  0  0  0
   23.4890    2.8970   31.3120 C   0  0  0  0  0  0  0  0  0  0  0  0
   25.0350    1.5420   32.6880 O   0  0  0  0  0  0  0  0  0  0  0  0
   24.0420    0.4900   32.8030 C   0  0  0  0  0  0  0  0  0  0  0  0
   23.5970   14.0650   28.2350 H   0  0  0  0  0  0  0  0  0  0  0  0
   22.0960   13.0400   28.4660 H   0  0  0  0  0  0  0  0  0  0  0  0
   22.0670   14.8310   28.9050 H   0  0  0  0  0  0  0  0  0  0  0  0
   24.2850   12.7930   31.4850 H   0  0  0  0  0  0  0  0  0  0  0  0
   24.7870   12.6250   29.7170 H   0  0  0  0  0  0  0  0  0  0  0  0
   22.8710   10.9920   29.3280 H   0  0  0  0  0  0  0  0  0  0  0  0
   23.9800   10.4140   30.6760 H   0  0  0  0  0  0  0  0  0  0  0  0
   19.5630    6.9220   32.4920 H   0  0  0  0  0  0  0  0  0  0  0  0
   18.0040    8.2400   33.7790 H   0  0  0  0  0  0  0  0  0  0  0  0
   18.1020    9.9950   33.8430 H   0  0  0  0  0  0  0  0  0  0  0  0
   22.7090    6.8000   30.3530 H   0  0  0  0  0  0  0  0  0  0  0  0
   21.3840    3.4570   29.8030 H   0  0  0  0  0  0  0  0  0  0  0  0
   22.1540    4.8530   28.9220 H   0  0  0  0  0  0  0  0  0  0  0  0
   26.0680    6.5820   28.7940 H   0  0  0  0  0  0  0  0  0  0  0  0
   25.4690    7.3760   30.3450 H   0  0  0  0  0  0  0  0  0  0  0  0
   24.6540    7.7540   28.7450 H   0  0  0  0  0  0  0  0  0  0  0  0
   26.5710    5.2240   30.6710 H   0  0  0  0  0  0  0  0  0  0  0  0
   26.8260    3.2180   32.0970 H   0  0  0  0  0  0  0  0  0  0  0  0
   22.6420    2.2320   31.4820 H   0  0  0  0  0  0  0  0  0  0  0  0
   24.5800   -0.2570   33.4340 H   0  0  0  0  0  0  0  0  0  0  0  0
   23.1370    0.8710   33.3210 H   0  0  0  0  0  0  0  0  0  0  0  0
   23.8120    0.0720   31.7990 H   0  0  0  0  0  0  0  0  0  0  0  0
  1  2  1  0  0  0  0
  1 29  1  0  0  0  0
  1 30  1  0  0  0  0
  1 31  1  0  0  0  0
  2  3  1  0  0  0  0
  3  4  1  0  0  0  0
  3 32  1  0  0  0  0
  3 33  1  0  0  0  0
  4  5  1  0  0  0  0
  4 34  1  0  0  0  0
  4 35  1  0  0  0  0
  5  6  1  0  0  0  0
  6 12  2  0  0  0  0
  6  7  1  0  0  0  0
  7  8  2  0  0  0  0
  8  9  1  0  0  0  0
  8 15  1  0  0  0  0
  9 10  2  0  0  0  0
  9 36  1  0  0  0  0
 10 11  1  0  0  0  0
 10 12  1  0  0  0  0
 11 37  1  0  0  0  0
 11 38  1  0  0  0  0
 12 13  1  0  0  0  0
 13 14  3  0  0  0  0
 15 16  1  0  0  0  0
 15 39  1  0  0  0  0
 16 17  2  0  0  0  0
 16 18  1  0  0  0  0
 18 19  1  0  0  0  0
 18 40  1  0  0  0  0
 18 41  1  0  0  0  0
 19 26  2  0  0  0  0
 19 20  1  0  0  0  0
 20 21  1  0  0  0  0
 20 23  2  0  0  0  0
 21 22  1  0  0  0  0
 22 42  1  0  0  0  0
 22 43  1  0  0  0  0
 22 44  1  0  0  0  0
 23 24  1  0  0  0  0
 23 45  1  0  0  0  0
 24 25  2  0  0  0  0
 24 46  1  0  0  0  0
 25 26  1  0  0  0  0
 25 27  1  0  0  0  0
 26 47  1  0  0  0  0
 27 28  1  0  0  0  0
 28 48  1  0  0  0  0
 28 49  1  0  0  0  0
 28 50  1  0  0  0  0
M  END
$$$$
