18639-1
 OpenBabel02232411163D
Structure written by MMmdl.
 48 49  0  0  0  0  0  0  0  0999 V2000
   23.2240   10.7730   29.0690 C   0  0  0  0  0  0  0  0  0  0  0  0
   23.4980   11.0260   30.5370 C   0  0  0  0  0  0  0  0  0  0  0  0
   22.2310   11.1420   31.2910 O   0  0  0  0  0  0  0  0  0  0  0  0
   21.5670   10.0170   31.6360 C   0  0  0  0  0  0  0  0  0  0  0  0
   22.0320    8.8170   31.2190 N   0  0  0  0  0  0  0  0  0  0  0  0
   21.2830    7.6950   31.5310 C   0  0  0  0  0  0  0  0  0  0  0  0
   20.1140    7.7530   32.2810 C   0  0  0  0  0  0  0  0  0  0  0  0
   19.6470    9.0150   32.7410 C   0  0  0  0  0  0  0  0  0  0  0  0
   18.4930    9.0770   33.4790 N   0  0  0  0  0  0  0  0  0  0  0  0
   20.3820   10.1990   32.4090 C   0  0  0  0  0  0  0  0  0  0  0  0
   19.9890   11.5060   32.7680 C   0  0  0  0  0  0  0  0  0  0  0  0
   19.7170   12.6040   33.0230 N   0  0  0  0  0  0  0  0  0  0  0  0
   21.8580    6.5250   30.9810 N   0  0  0  0  0  0  0  0  0  0  0  0
   21.2490    5.2590   30.8720 C   0  0  0  0  0  0  0  0  0  0  0  0
   20.1480    5.0170   31.3210 O   0  0  0  0  0  0  0  0  0  0  0  0
   22.0720    4.2590   30.0690 C   0  0  0  0  0  0  0  0  0  0  0  0
   23.4380    3.9870   30.6270 C   0  0  0  0  0  0  0  0  0  0  0  0
   24.5360    4.8470   30.3080 C   0  0  0  0  0  0  0  0  0  0  0  0
   24.1810    5.8920   29.4650 O   0  0  0  0  0  0  0  0  0  0  0  0
   25.1350    6.9800   29.3050 C   0  0  0  0  0  0  0  0  0  0  0  0
   25.8140    4.6070   30.7880 C   0  0  0  0  0  0  0  0  0  0  0  0
   26.0420    3.4940   31.6240 C   0  0  0  0  0  0  0  0  0  0  0  0
   27.3920    3.2400   32.1340 N   0  3  0  0  0  0  0  0  0  0  0  0
   27.5210    2.4620   33.0660 O   0  5  0  0  0  0  0  0  0  0  0  0
   28.3360    3.8110   31.6000 O   0  0  0  0  0  0  0  0  0  0  0  0
   24.9690    2.6290   31.9440 C   0  0  0  0  0  0  0  0  0  0  0  0
   23.6760    2.8820   31.4290 C   0  0  0  0  0  0  0  0  0  0  0  0
   25.3140    1.5940   32.7600 O   0  0  0  0  0  0  0  0  0  0  0  0
   24.3150    0.5580   33.0000 C   0  0  0  0  0  0  0  0  0  0  0  0
   24.1860   10.8250   28.5020 H   0  0  0  0  0  0  0  0  0  0  0  0
   22.5310   11.5350   28.6490 H   0  0  0  0  0  0  0  0  0  0  0  0
   22.7820    9.7610   28.9100 H   0  0  0  0  0  0  0  0  0  0  0  0
   23.9090   12.0480   30.7200 H   0  0  0  0  0  0  0  0  0  0  0  0
   24.1300   10.2290   30.9910 H   0  0  0  0  0  0  0  0  0  0  0  0
   19.5410    6.8520   32.5050 H   0  0  0  0  0  0  0  0  0  0  0  0
   17.9850    8.2130   33.7470 H   0  0  0  0  0  0  0  0  0  0  0  0
   18.1050    9.9690   33.7850 H   0  0  0  0  0  0  0  0  0  0  0  0
   22.7820    6.6700   30.5020 H   0  0  0  0  0  0  0  0  0  0  0  0
   21.4970    3.2970   30.0070 H   0  0  0  0  0  0  0  0  0  0  0  0
   22.1830    4.6750   29.0280 H   0  0  0  0  0  0  0  0  0  0  0  0
   25.4460    7.3770   30.2950 H   0  0  0  0  0  0  0  0  0  0  0  0
   25.9930    6.6240   28.6970 H   0  0  0  0  0  0  0  0  0  0  0  0
   24.5200    7.7260   28.7490 H   0  0  0  0  0  0  0  0  0  0  0  0
   26.6550    5.2570   30.5200 H   0  0  0  0  0  0  0  0  0  0  0  0
   22.8590    2.1950   31.6630 H   0  0  0  0  0  0  0  0  0  0  0  0
   24.8980   -0.1730   33.6100 H   0  0  0  0  0  0  0  0  0  0  0  0
   23.4650    0.9740   33.5810 H   0  0  0  0  0  0  0  0  0  0  0  0
   23.9940    0.1070   32.0360 H   0  0  0  0  0  0  0  0  0  0  0  0
  1  2  1  0  0  0  0
  1 30  1  0  0  0  0
  1 31  1  0  0  0  0
  1 32  1  0  0  0  0
  2  3  1  0  0  0  0
  2 33  1  0  0  0  0
  2 34  1  0  0  0  0
  3  4  1  0  0  0  0
  4 10  2  0  0  0  0
  4  5  1  0  0  0  0
  5  6  2  0  0  0  0
  6  7  1  0  0  0  0
  6 13  1  0  0  0  0
  7  8  2  0  0  0  0
  7 35  1  0  0  0  0
  8  9  1  0  0  0  0
  8 10  1  0  0  0  0
  9 36  1  0  0  0  0
  9 37  1  0  0  0  0
 10 11  1  0  0  0  0
 11 12  3  0  0  0  0
 13 14  1  0  0  0  0
 13 38  1  0  0  0  0
 14 15  2  0  0  0  0
 14 16  1  0  0  0  0
 16 17  1  0  0  0  0
 16 39  1  0  0  0  0
 16 40  1  0  0  0  0
 17 27  2  0  0  0  0
 17 18  1  0  0  0  0
 18 19  1  0  0  0  0
 18 21  2  0  0  0  0
 19 20  1  0  0  0  0
 20 41  1  0  0  0  0
 20 42  1  0  0  0  0
 20 43  1  0  0  0  0
 21 22  1  0  0  0  0
 21 44  1  0  0  0  0
 22 23  1  0  0  0  0
 22 26  2  0  0  0  0
 23 24  1  0  0  0  0
 23 25  2  0  0  0  0
 26 27  1  0  0  0  0
 26 28  1  0  0  0  0
 27 45  1  0  0  0  0
 28 29  1  0  0  0  0
 29 46  1  0  0  0  0
 29 47  1  0  0  0  0
 29 48  1  0  0  0  0
M  CHG  2  23   1  24  -1
M  END
$$$$
