66
 OpenBabel02232411163D
Structure written by MMmdl.
 43 46  0  0  0  0  0  0  0  0999 V2000
    3.6580  -48.6120    7.3070 O   0  0  0  0  0  0  0  0  0  0  0  0
    3.2440  -49.7710    7.1560 C   0  0  0  0  0  0  0  0  0  0  0  0
    3.9180  -50.8160    7.2200 O   0  5  0  0  0  0  0  0  0  0  0  0
    1.7510  -49.9860    6.8650 C   0  0  0  0  0  0  0  0  0  0  0  0
    1.0880  -51.5120    7.3970 S   0  0  0  0  0  0  0  0  0  0  0  0
   -0.5090  -51.1120    6.8390 C   0  0  0  0  0  0  0  0  0  0  0  0
   -1.6930  -51.8380    6.9580 C   0  0  0  0  0  0  0  0  0  0  0  0
   -2.8690  -51.3830    6.3760 C   0  0  0  0  0  0  0  0  0  0  0  0
   -2.8420  -50.1800    5.6490 C   0  0  0  0  0  0  0  0  0  0  0  0
   -1.6760  -49.4290    5.5350 C   0  0  0  0  0  0  0  0  0  0  0  0
   -0.4940  -49.8530    6.1710 C   0  0  0  0  0  0  0  0  0  0  0  0
    0.8110  -49.1900    6.2790 C   0  0  0  0  0  0  0  0  0  0  0  0
    1.1340  -47.7900    5.8540 C   0  0  0  0  0  0  0  0  0  0  0  0
    0.0230  -46.7350    5.9260 C   0  0  0  0  0  0  0  0  0  0  0  0
   -0.7950  -46.7450    7.2170 C   0  0  0  0  0  0  0  0  0  0  0  0
   -2.0090  -46.0160    6.7980 O   0  0  0  0  0  0  0  0  0  0  0  0
   -3.1260  -46.0470    7.5760 C   0  0  0  0  0  0  0  0  0  0  0  0
   -5.5420  -45.8380    8.9950 C   0  0  0  0  0  0  0  0  0  0  0  0
   -4.5330  -46.6580    9.4390 C   0  0  0  0  0  0  0  0  0  0  0  0
   -3.3040  -46.7700    8.7380 C   0  0  0  0  0  0  0  0  0  0  0  0
   -1.7590  -53.3210    7.8550 Cl  0  0  0  0  0  0  0  0  0  0  0  0
   -3.8020  -51.9390    6.4710 H   0  0  0  0  0  0  0  0  0  0  0  0
   -3.7640  -49.8380    5.1710 H   0  0  0  0  0  0  0  0  0  0  0  0
   -1.7100  -48.5210    4.9340 H   0  0  0  0  0  0  0  0  0  0  0  0
    1.4970  -47.8140    4.7950 H   0  0  0  0  0  0  0  0  0  0  0  0
    1.9880  -47.4270    6.5000 H   0  0  0  0  0  0  0  0  0  0  0  0
   -0.6940  -46.8790    5.0760 H   0  0  0  0  0  0  0  0  0  0  0  0
    0.4850  -45.7240    5.8010 H   0  0  0  0  0  0  0  0  0  0  0  0
   -0.3480  -46.1470    8.0350 H   0  0  0  0  0  0  0  0  0  0  0  0
   -1.0920  -47.7670    7.5250 H   0  0  0  0  0  0  0  0  0  0  0  0
   -2.5570  -47.4460    9.1320 H   0  0  0  0  0  0  0  0  0  0  0  0
   -5.3930  -45.1170    7.7690 C   0  0  0  0  0  0  0  0  0  0  0  0
   -4.1820  -45.2180    7.0360 C   0  0  0  0  0  0  0  0  0  0  0  0
   -4.0580  -44.5570    5.7790 C   0  0  0  0  0  0  0  0  0  0  0  0
   -5.0970  -43.8100    5.2780 C   0  0  0  0  0  0  0  0  0  0  0  0
   -6.3080  -43.6970    6.0150 C   0  0  0  0  0  0  0  0  0  0  0  0
   -6.4540  -44.3270    7.2270 C   0  0  0  0  0  0  0  0  0  0  0  0
   -3.1380  -44.6800    5.2060 H   0  0  0  0  0  0  0  0  0  0  0  0
   -5.0110  -43.3090    4.3160 H   0  0  0  0  0  0  0  0  0  0  0  0
   -7.1210  -43.1040    5.5990 H   0  0  0  0  0  0  0  0  0  0  0  0
   -7.3870  -44.2480    7.7860 H   0  0  0  0  0  0  0  0  0  0  0  0
   -4.6690  -47.2510   10.3470 H   0  0  0  0  0  0  0  0  0  0  0  0
   -6.4750  -45.7470    9.5480 H   0  0  0  0  0  0  0  0  0  0  0  0
  1  2  2  0  0  0  0
  2  3  1  0  0  0  0
  2  4  1  0  0  0  0
  4  5  1  0  0  0  0
  4 12  2  0  0  0  0
  5  6  1  0  0  0  0
  6  7  2  0  0  0  0
  6 11  1  0  0  0  0
  7  8  1  0  0  0  0
  7 21  1  0  0  0  0
  8  9  2  0  0  0  0
  8 22  1  0  0  0  0
  9 10  1  0  0  0  0
  9 23  1  0  0  0  0
 10 11  2  0  0  0  0
 10 24  1  0  0  0  0
 11 12  1  0  0  0  0
 12 13  1  0  0  0  0
 13 25  1  0  0  0  0
 13 26  1  0  0  0  0
 13 14  1  0  0  0  0
 14 15  1  0  0  0  0
 14 27  1  0  0  0  0
 14 28  1  0  0  0  0
 15 16  1  0  0  0  0
 15 29  1  0  0  0  0
 15 30  1  0  0  0  0
 16 17  1  0  0  0  0
 17 20  2  0  0  0  0
 17 33  1  0  0  0  0
 18 19  2  0  0  0  0
 18 32  1  0  0  0  0
 18 43  1  0  0  0  0
 19 20  1  0  0  0  0
 19 42  1  0  0  0  0
 20 31  1  0  0  0  0
 32 33  2  0  0  0  0
 32 37  1  0  0  0  0
 33 34  1  0  0  0  0
 34 35  2  0  0  0  0
 34 38  1  0  0  0  0
 35 36  1  0  0  0  0
 35 39  1  0  0  0  0
 36 37  2  0  0  0  0
 36 40  1  0  0  0  0
 37 41  1  0  0  0  0
M  CHG  1   3  -1
M  END
$$$$
