2u
                    3D
 Schrodinger Suite 2022-3.
 64 68  0  0  1  0  0  0  0  0999 V2000
   27.0610    8.9280   30.4770 C   0  0  0  0  0  0  0  0  0  0  0  0
   28.4200    9.5160   30.8770 C   0  0  0  0  0  0  0  0  0  0  0  0
   28.5250    8.1520   32.8670 C   0  0  0  0  0  0  0  0  0  0  0  0
   27.1890    7.4730   32.5440 C   0  0  0  0  0  0  0  0  0  0  0  0
   15.9500   10.5460   31.6920 C   0  0  0  0  0  0  0  0  0  0  0  0
   29.2000    8.5890   31.6670 O   0  0  0  0  0  0  0  0  0  0  0  0
   21.3740   12.5470   31.3130 C   0  0  0  0  0  0  0  0  0  0  0  0
   17.2420   11.0460   31.8320 C   0  0  0  0  0  0  0  0  0  0  0  0
   23.8920    8.4250   31.0470 C   0  0  0  0  0  0  0  0  0  0  0  0
   26.3050    8.4470   31.7360 C   0  0  0  0  0  0  0  0  0  0  0  0
   21.4900    9.7250   30.7090 C   0  0  0  0  0  0  0  0  0  0  0  0
   20.2240   10.4030   30.6650 C   0  0  0  0  0  0  0  0  0  0  0  0
   15.2750   10.8680   30.5080 C   0  0  0  0  0  0  0  0  0  0  0  0
   15.8330   11.6550   29.4990 C   0  0  0  0  0  0  0  0  0  0  0  0
   17.1250   12.1630   29.6700 C   0  0  0  0  0  0  0  0  0  0  0  0
   22.6520   10.4290   31.1370 C   0  0  0  0  0  0  0  0  0  0  0  0
   21.6520    8.3550   30.3710 C   0  0  0  0  0  0  0  0  0  0  0  0
   20.1780   11.7140   30.9920 C   0  0  0  0  0  0  0  0  0  0  0  0
   17.8220   11.8710   30.8470 C   0  0  0  0  0  0  0  0  0  0  0  0
   17.9540   10.7350   32.9080 F   0  0  0  0  0  0  0  0  0  0  0  0
   14.0520   10.3740   30.3290 F   0  0  0  0  0  0  0  0  0  0  0  0
   19.0440   12.5170   31.0810 O   0  0  0  0  0  0  0  0  0  0  0  0
   22.8100    7.6920   30.5230 N   0  0  0  0  0  0  0  0  0  0  0  0
   21.3510   13.7420   31.5030 O   0  0  0  0  0  0  0  0  0  0  0  0
   22.6120   11.8160   31.3910 N   0  0  0  0  0  0  0  0  0  0  0  0
   23.8470    9.7780   31.3060 N   0  0  0  0  0  0  0  0  0  0  0  0
   25.0410    7.7360   31.3750 N   0  0  0  0  0  0  0  0  0  0  0  0
   15.2860   11.8650   28.5780 H   0  0  0  0  0  0  0  0  0  0  0  0
   17.5840   12.7720   28.8840 H   0  0  0  0  0  0  0  0  0  0  0  0
   15.5040    9.9030   32.4520 H   0  0  0  0  0  0  0  0  0  0  0  0
   19.3430    9.8270   30.3770 H   0  0  0  0  0  0  0  0  0  0  0  0
   20.8020    7.7890   29.9560 H   0  0  0  0  0  0  0  0  0  0  0  0
   27.2080    8.0690   29.7830 H   0  0  0  0  0  0  0  0  0  0  0  0
   26.4700    9.7160   29.9540 H   0  0  0  0  0  0  0  0  0  0  0  0
   28.2910   10.4590   31.4560 H   0  0  0  0  0  0  0  0  0  0  0  0
   29.0750    9.6740   29.9910 H   0  0  0  0  0  0  0  0  0  0  0  0
   29.2530    7.4270   33.3000 H   0  0  0  0  0  0  0  0  0  0  0  0
   28.3750    9.0300   33.5370 H   0  0  0  0  0  0  0  0  0  0  0  0
   26.6750    7.1880   33.4930 H   0  0  0  0  0  0  0  0  0  0  0  0
   27.3740    6.5440   31.9530 H   0  0  0  0  0  0  0  0  0  0  0  0
   26.0470    9.3350   32.3770 H   0  0  0  0  0  0  0  0  0  0  0  0
   24.7440   11.7770   31.5730 H   0  0  0  0  0  0  0  0  0  0  0  0
   25.1680    6.7670   31.0210 H   0  0  0  0  0  0  0  0  0  0  0  0
   25.3370   13.2850   33.6690 C   0  0  0  0  0  0  0  0  0  0  0  0
   23.9150   12.8090   33.3100 C   0  0  0  0  0  0  0  0  0  0  0  0
   23.8970   12.4950   31.8000 C   0  0  0  0  0  0  0  0  0  0  0  0
   24.1740   13.7870   31.0130 C   0  0  0  0  0  0  0  0  0  0  0  0
   25.5820   14.2890   31.3960 C   0  0  0  0  0  0  0  0  0  0  0  0
   25.7230   14.4940   32.8730 N   0  0  2  0  0  0  0  0  0  0  0  0
   26.0550   12.4360   33.4770 H   0  0  0  0  0  0  0  0  0  0  0  0
   25.3580   13.5550   34.7550 H   0  0  0  0  0  0  0  0  0  0  0  0
   23.6780   11.8910   33.8950 H   0  0  0  0  0  0  0  0  0  0  0  0
   23.1820   13.6120   33.5520 H   0  0  0  0  0  0  0  0  0  0  0  0
   23.4160   14.5690   31.2570 H   0  0  0  0  0  0  0  0  0  0  0  0
   24.1580   13.5900   29.9160 H   0  0  0  0  0  0  0  0  0  0  0  0
   26.3360   13.5420   31.0180 H   0  0  0  0  0  0  0  0  0  0  0  0
   25.7500   15.2740   30.8830 H   0  0  0  0  0  0  0  0  0  0  0  0
   27.2050   15.2470   33.3710 S   0  0  0  0  0  0  0  0  0  0  0  0
   27.0270   15.5920   34.7890 O   0  0  0  0  0  0  0  0  0  0  0  0
   27.4410   16.4120   32.5030 O   0  0  0  0  0  0  0  0  0  0  0  0
   28.4730   14.0780   33.1860 C   0  0  0  0  0  0  0  0  0  0  0  0
   28.3800   13.2120   33.8950 H   0  0  0  0  0  0  0  0  0  0  0  0
   28.5160   13.6320   32.1570 H   0  0  0  0  0  0  0  0  0  0  0  0
   29.4880   14.5180   33.3760 H   0  0  0  0  0  0  0  0  0  0  0  0
  1  2  1  0  0  0  0
  1 10  1  0  0  0  0
  1 33  1  0  0  0  0
  1 34  1  0  0  0  0
  2  6  1  0  0  0  0
  2 35  1  0  0  0  0
  2 36  1  0  0  0  0
  3  4  1  0  0  0  0
  3  6  1  0  0  0  0
  3 37  1  0  0  0  0
  3 38  1  0  0  0  0
  4 10  1  0  0  0  0
  4 39  1  0  0  0  0
  4 40  1  0  0  0  0
  5  8  1  0  0  0  0
  5 13  2  0  0  0  0
  5 30  1  0  0  0  0
  7 18  1  0  0  0  0
  7 24  2  0  0  0  0
  7 25  1  0  0  0  0
  8 19  2  0  0  0  0
  8 20  1  0  0  0  0
  9 23  1  0  0  0  0
  9 26  2  0  0  0  0
  9 27  1  0  0  0  0
 10 27  1  0  0  0  0
 10 41  1  0  0  0  0
 11 12  1  0  0  0  0
 11 16  2  0  0  0  0
 11 17  1  0  0  0  0
 12 18  2  0  0  0  0
 12 31  1  0  0  0  0
 13 14  1  0  0  0  0
 13 21  1  0  0  0  0
 14 15  2  0  0  0  0
 14 28  1  0  0  0  0
 15 19  1  0  0  0  0
 15 29  1  0  0  0  0
 16 25  1  0  0  0  0
 16 26  1  0  0  0  0
 17 23  2  0  0  0  0
 17 32  1  0  0  0  0
 18 22  1  0  0  0  0
 19 22  1  0  0  0  0
 25 46  1  0  0  0  0
 27 43  1  0  0  0  0
 42 46  1  0  0  0  0
 44 45  1  0  0  0  0
 44 49  1  0  0  0  0
 44 50  1  0  0  0  0
 44 51  1  0  0  0  0
 45 46  1  0  0  0  0
 45 52  1  0  0  0  0
 45 53  1  0  0  0  0
 46 47  1  0  0  0  0
 47 48  1  0  0  0  0
 47 54  1  0  0  0  0
 47 55  1  0  0  0  0
 48 49  1  0  0  0  0
 48 56  1  0  0  0  0
 48 57  1  0  0  0  0
 49 58  1  0  0  0  0
 58 59  2  0  0  0  0
 58 60  2  0  0  0  0
 58 61  1  0  0  0  0
 61 62  1  0  0  0  0
 61 63  1  0  0  0  0
 61 64  1  0  0  0  0
M  END
$$$$
