CAT-13i
 OpenBabel02232411143D
Structure written by MMmdl.
 46 49  0  0  1  0  0  0  0  0999 V2000
   11.7730   -1.8280    1.1550 C   0  0  0  0  0  0  0  0  0  0  0  0
   13.0720   -2.2220    0.5810 N   0  0  0  0  0  0  0  0  0  0  0  0
   14.2450   -2.3160    1.3400 C   0  0  0  0  0  0  0  0  0  0  0  0
   14.3450   -2.2870    2.6940 N   0  0  0  0  0  0  0  0  0  0  0  0
   15.3360   -2.5340    0.5010 N   0  3  0  0  0  0  0  0  0  0  0  0
   14.8660   -2.8830   -0.8890 C   0  0  2  0  0  0  0  0  0  0  0  0
   15.1520   -4.3530   -1.2090 C   0  0  0  0  0  0  0  0  0  0  0  0
   14.6320   -5.4710   -0.3220 C   0  0  0  0  0  0  0  0  0  0  0  0
   13.7400   -5.4210    0.9110 C   0  0  0  0  0  0  0  0  0  0  0  0
   13.1920   -5.9710   -0.3860 C   0  0  0  0  0  0  0  0  0  0  0  0
   15.4360   -1.8570   -1.8650 C   0  0  0  0  0  0  0  0  0  0  0  0
   16.1410   -2.2320   -3.0140 C   0  0  0  0  0  0  0  0  0  0  0  0
   16.5900   -1.2470   -3.9030 C   0  0  0  0  0  0  0  0  0  0  0  0
   16.3470    0.1040   -3.6580 C   0  0  0  0  0  0  0  0  0  0  0  0
   15.6620    0.4960   -2.4940 C   0  0  0  0  0  0  0  0  0  0  0  0
   15.4190    1.9270   -2.2030 C   0  0  0  0  0  0  0  0  0  0  0  0
   15.6350    2.4250   -0.9070 C   0  0  0  0  0  0  0  0  0  0  0  0
   15.3500    3.7580   -0.5990 C   0  0  0  0  0  0  0  0  0  0  0  0
   14.8660    4.6200   -1.5860 C   0  0  0  0  0  0  0  0  0  0  0  0
   14.7020    4.1260   -2.8840 C   0  0  0  0  0  0  0  0  0  0  0  0
   14.1580    5.1960   -4.1130 Cl  0  0  0  0  0  0  0  0  0  0  0  0
   14.9620    2.7930   -3.2100 C   0  0  0  0  0  0  0  0  0  0  0  0
   15.2080   -0.4930   -1.6090 C   0  0  0  0  0  0  0  0  0  0  0  0
   13.3280   -2.6220   -0.8120 C   0  0  0  0  0  0  0  0  0  0  0  0
   12.4670   -2.6620   -1.6310 O   0  0  0  0  0  0  0  0  0  0  0  0
   11.6410   -2.2770    2.1750 H   0  0  0  0  0  0  0  0  0  0  0  0
   11.7420   -0.7080    1.2270 H   0  0  0  0  0  0  0  0  0  0  0  0
   10.9440   -2.1910    0.4920 H   0  0  0  0  0  0  0  0  0  0  0  0
   13.6100   -1.8760    3.3140 H   0  0  0  0  0  0  0  0  0  0  0  0
   16.2210   -2.9460    0.8980 H   0  0  0  0  0  0  0  0  0  0  0  0
   16.2740   -4.4580   -1.2410 H   0  0  0  0  0  0  0  0  0  0  0  0
   14.7470   -4.5600   -2.2380 H   0  0  0  0  0  0  0  0  0  0  0  0
   15.4090   -6.2590   -0.2760 H   0  0  0  0  0  0  0  0  0  0  0  0
   13.9770   -6.1290    1.7210 H   0  0  0  0  0  0  0  0  0  0  0  0
   13.3310   -4.5040    1.3200 H   0  0  0  0  0  0  0  0  0  0  0  0
   12.4540   -5.3840   -0.9420 H   0  0  0  0  0  0  0  0  0  0  0  0
   13.0190   -7.0530   -0.4640 H   0  0  0  0  0  0  0  0  0  0  0  0
   16.3520   -3.2790   -3.2320 H   0  0  0  0  0  0  0  0  0  0  0  0
   17.1440   -1.5370   -4.8000 H   0  0  0  0  0  0  0  0  0  0  0  0
   16.6980    0.8530   -4.3750 H   0  0  0  0  0  0  0  0  0  0  0  0
   16.0150    1.7610   -0.1300 H   0  0  0  0  0  0  0  0  0  0  0  0
   15.5000    4.1160    0.4240 H   0  0  0  0  0  0  0  0  0  0  0  0
   14.6050    5.6520   -1.3380 H   0  0  0  0  0  0  0  0  0  0  0  0
   14.8020    2.4250   -4.2290 H   0  0  0  0  0  0  0  0  0  0  0  0
   14.6770   -0.1990   -0.7030 H   0  0  0  0  0  0  0  0  0  0  0  0
   15.3000   -2.3140    3.1420 H   0  0  0  0  0  0  0  0  0  0  0  0
  1  2  1  0  0  0  0
  1 26  1  0  0  0  0
  1 27  1  0  0  0  0
  1 28  1  0  0  0  0
  2  3  1  0  0  0  0
  2 24  1  0  0  0  0
  3  4  1  0  0  0  0
  3  5  2  0  0  0  0
  4 29  1  0  0  0  0
  4 46  1  0  0  0  0
  5  6  1  0  0  0  0
  5 30  1  0  0  0  0
  6  7  1  6  0  0  0
  6 11  1  0  0  0  0
  6 24  1  0  0  0  0
  7  8  1  0  0  0  0
  7 31  1  0  0  0  0
  7 32  1  0  0  0  0
  8  9  1  0  0  0  0
  8 10  1  0  0  0  0
  8 33  1  0  0  0  0
  9 10  1  0  0  0  0
  9 34  1  0  0  0  0
  9 35  1  0  0  0  0
 10 36  1  0  0  0  0
 10 37  1  0  0  0  0
 11 12  2  0  0  0  0
 11 23  1  0  0  0  0
 12 13  1  0  0  0  0
 12 38  1  0  0  0  0
 13 14  2  0  0  0  0
 13 39  1  0  0  0  0
 14 15  1  0  0  0  0
 14 40  1  0  0  0  0
 15 16  1  0  0  0  0
 15 23  2  0  0  0  0
 16 17  2  0  0  0  0
 16 22  1  0  0  0  0
 17 18  1  0  0  0  0
 17 41  1  0  0  0  0
 18 19  2  0  0  0  0
 18 42  1  0  0  0  0
 19 20  1  0  0  0  0
 19 43  1  0  0  0  0
 20 21  1  0  0  0  0
 20 22  2  0  0  0  0
 22 44  1  0  0  0  0
 23 45  1  0  0  0  0
 24 25  2  0  0  0  0
M  CHG  1   5   1
M  END
$$$$
