2s
                    3D
 Schrodinger Suite 2022-3.
 54 57  0  0  1  0  0  0  0  0999 V2000
   27.1940    9.0840   30.3440 C   0  0  0  0  0  0  0  0  0  0  0  0
   28.5600    9.6330   30.7720 C   0  0  0  0  0  0  0  0  0  0  0  0
   28.4980    8.4050   32.8560 C   0  0  0  0  0  0  0  0  0  0  0  0
   27.1490    7.7690   32.5020 C   0  0  0  0  0  0  0  0  0  0  0  0
   15.8230   10.4590   31.6650 C   0  0  0  0  0  0  0  0  0  0  0  0
   29.2530    8.7380   31.6720 O   0  0  0  0  0  0  0  0  0  0  0  0
   21.1720   12.6580   31.2650 C   0  0  0  0  0  0  0  0  0  0  0  0
   17.1020   10.9900   31.8090 C   0  0  0  0  0  0  0  0  0  0  0  0
   23.9210    8.6900   30.9090 C   0  0  0  0  0  0  0  0  0  0  0  0
   26.3540    8.7250   31.5880 C   0  0  0  0  0  0  0  0  0  0  0  0
   21.4470    9.8580   30.6500 C   0  0  0  0  0  0  0  0  0  0  0  0
   20.1420   10.4570   30.6410 C   0  0  0  0  0  0  0  0  0  0  0  0
   15.1460   10.7610   30.4770 C   0  0  0  0  0  0  0  0  0  0  0  0
   15.6940   11.5490   29.4620 C   0  0  0  0  0  0  0  0  0  0  0  0
   16.9710   12.0900   29.6380 C   0  0  0  0  0  0  0  0  0  0  0  0
   22.5930   10.6280   31.0100 C   0  0  0  0  0  0  0  0  0  0  0  0
   21.6580    8.4880   30.3330 C   0  0  0  0  0  0  0  0  0  0  0  0
   20.0250   11.7650   30.9600 C   0  0  0  0  0  0  0  0  0  0  0  0
   17.6630   11.8260   30.8230 C   0  0  0  0  0  0  0  0  0  0  0  0
   23.6520   12.8370   31.6080 C   0  0  0  0  0  0  0  0  0  0  0  0
   17.8200   10.6970   32.8850 F   0  0  0  0  0  0  0  0  0  0  0  0
   13.9310   10.2490   30.2970 F   0  0  0  0  0  0  0  0  0  0  0  0
   18.8560   12.5150   31.0710 O   0  0  0  0  0  0  0  0  0  0  0  0
   22.8510    7.8920   30.4500 N   0  0  0  0  0  0  0  0  0  0  0  0
   21.0950   13.8360   31.5310 O   0  0  0  0  0  0  0  0  0  0  0  0
   22.4620   12.0090   31.2570 N   0  0  0  0  0  0  0  0  0  0  0  0
   23.8330   10.0530   31.1320 N   0  0  0  0  0  0  0  0  0  0  0  0
   25.0930    8.0310   31.1900 N   0  0  0  0  0  0  0  0  0  0  0  0
   15.1510   11.7340   28.5340 H   0  0  0  0  0  0  0  0  0  0  0  0
   17.4200   12.7050   28.8510 H   0  0  0  0  0  0  0  0  0  0  0  0
   15.3930    9.8080   32.4250 H   0  0  0  0  0  0  0  0  0  0  0  0
   19.2890    9.8280   30.3840 H   0  0  0  0  0  0  0  0  0  0  0  0
   20.8200    7.8690   29.9730 H   0  0  0  0  0  0  0  0  0  0  0  0
   27.3270    8.1700   29.7200 H   0  0  0  0  0  0  0  0  0  0  0  0
   26.6660    9.8540   29.7340 H   0  0  0  0  0  0  0  0  0  0  0  0
   28.4530   10.6260   31.2640 H   0  0  0  0  0  0  0  0  0  0  0  0
   29.2660    9.6790   29.9120 H   0  0  0  0  0  0  0  0  0  0  0  0
   29.1660    7.6730   33.3670 H   0  0  0  0  0  0  0  0  0  0  0  0
   28.3570    9.3260   33.4680 H   0  0  0  0  0  0  0  0  0  0  0  0
   26.5740    7.5620   33.4370 H   0  0  0  0  0  0  0  0  0  0  0  0
   27.3180    6.7950   31.9790 H   0  0  0  0  0  0  0  0  0  0  0  0
   26.0900    9.6600   32.1550 H   0  0  0  0  0  0  0  0  0  0  0  0
   23.2980   13.7410   32.1770 H   0  0  0  0  0  0  0  0  0  0  0  0
   24.3400   12.2320   32.2680 H   0  0  0  0  0  0  0  0  0  0  0  0
   25.2050    7.0450   30.8750 H   0  0  0  0  0  0  0  0  0  0  0  0
   24.4700   13.3150   30.3770 C   0  0  1  0  0  0  0  0  0  0  0  0
   25.1080   12.4850   29.9780 H   0  0  0  0  0  0  0  0  0  0  0  0
   23.6570   13.9590   29.2360 C   0  0  0  0  0  0  0  0  0  0  0  0
   24.2800   14.0350   28.3130 H   0  0  0  0  0  0  0  0  0  0  0  0
   22.7000   13.4360   29.0400 H   0  0  0  0  0  0  0  0  0  0  0  0
   25.4170   14.2670   30.8820 O   0  0  0  0  0  0  0  0  0  0  0  0
   24.9890   15.1620   30.9210 H   0  0  0  0  0  0  0  0  0  0  0  0
   23.3610   15.3060   29.6660 O   0  0  0  0  0  0  0  0  0  0  0  0
   22.6980   15.6990   28.9860 H   0  0  0  0  0  0  0  0  0  0  0  0
  1  2  1  0  0  0  0
  1 10  1  0  0  0  0
  1 34  1  0  0  0  0
  1 35  1  0  0  0  0
  2  6  1  0  0  0  0
  2 36  1  0  0  0  0
  2 37  1  0  0  0  0
  3  4  1  0  0  0  0
  3  6  1  0  0  0  0
  3 38  1  0  0  0  0
  3 39  1  0  0  0  0
  4 10  1  0  0  0  0
  4 40  1  0  0  0  0
  4 41  1  0  0  0  0
  5  8  1  0  0  0  0
  5 13  2  0  0  0  0
  5 31  1  0  0  0  0
  7 18  1  0  0  0  0
  7 25  2  0  0  0  0
  7 26  1  0  0  0  0
  8 19  2  0  0  0  0
  8 21  1  0  0  0  0
  9 24  1  0  0  0  0
  9 27  2  0  0  0  0
  9 28  1  0  0  0  0
 10 28  1  0  0  0  0
 10 42  1  0  0  0  0
 11 12  1  0  0  0  0
 11 16  2  0  0  0  0
 11 17  1  0  0  0  0
 12 18  2  0  0  0  0
 12 32  1  0  0  0  0
 13 14  1  0  0  0  0
 13 22  1  0  0  0  0
 14 15  2  0  0  0  0
 14 29  1  0  0  0  0
 15 19  1  0  0  0  0
 15 30  1  0  0  0  0
 16 26  1  0  0  0  0
 16 27  1  0  0  0  0
 17 24  2  0  0  0  0
 17 33  1  0  0  0  0
 18 23  1  0  0  0  0
 19 23  1  0  0  0  0
 20 26  1  0  0  0  0
 20 43  1  0  0  0  0
 20 44  1  0  0  0  0
 20 46  1  0  0  0  0
 28 45  1  0  0  0  0
 46 47  1  0  0  0  0
 46 48  1  0  0  0  0
 46 51  1  0  0  0  0
 48 49  1  0  0  0  0
 48 50  1  0  0  0  0
 48 53  1  0  0  0  0
 51 52  1  0  0  0  0
 53 54  1  0  0  0  0
M  END
$$$$
