p38a_2r
 OpenBabel02232411163D
Structure written by MMmdl.
 56 59  0  0  0  0  0  0  0  0999 V2000
   36.2760   35.7250   16.2210 C   0  0  0  0  0  0  0  0  0  0  0  0
   34.1020   35.1000   21.7500 C   0  0  0  0  0  0  0  0  0  0  0  0
   35.4560   35.3840   17.2930 C   0  0  0  0  0  0  0  0  0  0  0  0
   33.9340   39.2700   24.2050 C   0  0  0  0  0  0  0  0  0  0  0  0
   34.5370   37.9410   21.8680 C   0  0  0  0  0  0  0  0  0  0  0  0
   34.9100   37.2230   20.6840 C   0  0  0  0  0  0  0  0  0  0  0  0
   37.5610   36.1850   16.5390 C   0  0  0  0  0  0  0  0  0  0  0  0
   38.0470   36.2700   17.8460 C   0  0  0  0  0  0  0  0  0  0  0  0
   37.2010   35.9290   18.9070 C   0  0  0  0  0  0  0  0  0  0  0  0
   34.0110   37.2470   23.0010 C   0  0  0  0  0  0  0  0  0  0  0  0
   34.6710   39.3530   21.9800 C   0  0  0  0  0  0  0  0  0  0  0  0
   34.7260   35.8830   20.6510 C   0  0  0  0  0  0  0  0  0  0  0  0
   35.9020   35.4910   18.6280 C   0  0  0  0  0  0  0  0  0  0  0  0
   34.2310   34.9230   17.0800 F   0  0  0  0  0  0  0  0  0  0  0  0
   35.0010   35.0200   19.5880 O   0  0  0  0  0  0  0  0  0  0  0  0
   34.3920   40.0280   23.1030 N   0  0  0  0  0  0  0  0  0  0  0  0
   33.8270   33.9200   21.6930 O   0  0  0  0  0  0  0  0  0  0  0  0
   33.7990   35.8550   22.9410 N   0  0  0  0  0  0  0  0  0  0  0  0
   33.6780   37.9130   24.1490 N   0  0  0  0  0  0  0  0  0  0  0  0
   33.7090   39.9350   25.3820 N   0  0  0  0  0  0  0  0  0  0  0  0
   35.9300   35.6710   15.1840 H   0  0  0  0  0  0  0  0  0  0  0  0
   35.3390   37.7870   19.8490 H   0  0  0  0  0  0  0  0  0  0  0  0
   39.0630   36.6270   18.0360 H   0  0  0  0  0  0  0  0  0  0  0  0
   37.5510   36.0260   19.9350 H   0  0  0  0  0  0  0  0  0  0  0  0
   35.0240   39.9370   21.1130 H   0  0  0  0  0  0  0  0  0  0  0  0
   33.9010   40.9540   25.4400 H   0  0  0  0  0  0  0  0  0  0  0  0
   38.3480   36.5870   15.5430 F   0  0  0  0  0  0  0  0  0  0  0  0
   32.8540   39.6710   29.1010 C   0  0  0  0  0  0  0  0  0  0  0  0
   33.0660   40.3140   27.7250 C   0  0  0  0  0  0  0  0  0  0  0  0
   33.3820   39.2350   26.6680 C   0  0  0  0  0  0  0  0  0  0  0  0
   34.5460   38.3430   27.1430 C   0  0  0  0  0  0  0  0  0  0  0  0
   34.2580   37.7950   28.5420 C   0  0  0  0  0  0  0  0  0  0  0  0
   33.9800   38.8560   29.4880 O   0  0  0  0  0  0  0  0  0  0  0  0
   31.9310   39.0450   29.1090 H   0  0  0  0  0  0  0  0  0  0  0  0
   32.8250   40.4460   29.9030 H   0  0  0  0  0  0  0  0  0  0  0  0
   33.9030   41.0530   27.7860 H   0  0  0  0  0  0  0  0  0  0  0  0
   32.1460   40.8690   27.4310 H   0  0  0  0  0  0  0  0  0  0  0  0
   32.4680   38.6010   26.4910 H   0  0  0  0  0  0  0  0  0  0  0  0
   34.6580   37.4620   26.4470 H   0  0  0  0  0  0  0  0  0  0  0  0
   35.4970   38.9200   27.1420 H   0  0  0  0  0  0  0  0  0  0  0  0
   33.3910   37.0930   28.5260 H   0  0  0  0  0  0  0  0  0  0  0  0
   35.1610   37.3140   28.9830 H   0  0  0  0  0  0  0  0  0  0  0  0
   33.2660   35.1280   24.1310 C   0  0  0  0  0  0  0  0  0  0  0  0
   32.6630   35.8420   24.7650 H   0  0  0  0  0  0  0  0  0  0  0  0
   32.5810   34.3130   23.7630 H   0  0  0  0  0  0  0  0  0  0  0  0
   34.3470   34.4820   25.0520 C   0  0  0  0  0  0  0  0  0  0  0  0
   34.9610   35.5970   25.7430 O   0  0  0  0  0  0  0  0  0  0  0  0
   35.4970   35.2650   26.5130 H   0  0  0  0  0  0  0  0  0  0  0  0
   35.4500   33.7410   24.2940 C   0  0  0  0  0  0  0  0  0  0  0  0
   36.0290   34.4770   23.7000 H   0  0  0  0  0  0  0  0  0  0  0  0
   36.1440   33.2540   25.0120 H   0  0  0  0  0  0  0  0  0  0  0  0
   35.0170   32.9680   23.6270 H   0  0  0  0  0  0  0  0  0  0  0  0
   33.6510   33.5740   26.0790 C   0  0  0  0  0  0  0  0  0  0  0  0
   34.3620   33.2850   26.8850 H   0  0  0  0  0  0  0  0  0  0  0  0
   32.7920   34.0990   26.5590 H   0  0  0  0  0  0  0  0  0  0  0  0
   33.2700   32.6440   25.6000 H   0  0  0  0  0  0  0  0  0  0  0  0
  1  3  2  0  0  0  0
  1  7  1  0  0  0  0
  1 21  1  0  0  0  0
  2 12  1  0  0  0  0
  2 17  2  0  0  0  0
  2 18  1  0  0  0  0
  3 13  1  0  0  0  0
  3 14  1  0  0  0  0
  4 16  2  0  0  0  0
  4 19  1  0  0  0  0
  4 20  1  0  0  0  0
  5  6  1  0  0  0  0
  5 10  1  0  0  0  0
  5 11  2  0  0  0  0
  6 12  2  0  0  0  0
  6 22  1  0  0  0  0
  7  8  2  0  0  0  0
  7 27  1  0  0  0  0
  8  9  1  0  0  0  0
  8 23  1  0  0  0  0
  9 13  2  0  0  0  0
  9 24  1  0  0  0  0
 10 18  1  0  0  0  0
 10 19  2  0  0  0  0
 11 16  1  0  0  0  0
 11 25  1  0  0  0  0
 12 15  1  0  0  0  0
 13 15  1  0  0  0  0
 18 43  1  0  0  0  0
 20 26  1  0  0  0  0
 20 30  1  0  0  0  0
 28 29  1  0  0  0  0
 28 33  1  0  0  0  0
 28 34  1  0  0  0  0
 28 35  1  0  0  0  0
 29 30  1  0  0  0  0
 29 36  1  0  0  0  0
 29 37  1  0  0  0  0
 30 31  1  0  0  0  0
 30 38  1  0  0  0  0
 31 32  1  0  0  0  0
 31 39  1  0  0  0  0
 31 40  1  0  0  0  0
 32 33  1  0  0  0  0
 32 41  1  0  0  0  0
 32 42  1  0  0  0  0
 43 44  1  0  0  0  0
 43 45  1  0  0  0  0
 43 46  1  0  0  0  0
 46 47  1  0  0  0  0
 46 49  1  0  0  0  0
 46 53  1  0  0  0  0
 47 48  1  0  0  0  0
 49 50  1  0  0  0  0
 49 51  1  0  0  0  0
 49 52  1  0  0  0  0
 53 54  1  0  0  0  0
 53 55  1  0  0  0  0
 53 56  1  0  0  0  0
M  END
$$$$
