p38a_2ee
 OpenBabel02232411163D
Structure written by MMmdl.
 52 55  0  0  0  0  0  0  0  0999 V2000
   38.2800   36.5540   17.1300 C   0  0  0  0  0  0  0  0  0  0  0  0
   34.5460   35.0600   21.1460 C   0  0  0  0  0  0  0  0  0  0  0  0
   37.4740   36.0910   18.1660 C   0  0  0  0  0  0  0  0  0  0  0  0
   33.9930   39.0850   23.7750 C   0  0  0  0  0  0  0  0  0  0  0  0
   34.6380   37.9360   21.3510 C   0  0  0  0  0  0  0  0  0  0  0  0
   35.0170   37.3030   20.1170 C   0  0  0  0  0  0  0  0  0  0  0  0
   37.6530   36.7370   15.8890 C   0  0  0  0  0  0  0  0  0  0  0  0
   36.3050   36.4580   15.6570 C   0  0  0  0  0  0  0  0  0  0  0  0
   35.5200   35.9790   16.7110 C   0  0  0  0  0  0  0  0  0  0  0  0
   34.2810   37.1400   22.4800 C   0  0  0  0  0  0  0  0  0  0  0  0
   34.6180   39.3460   21.5290 C   0  0  0  0  0  0  0  0  0  0  0  0
   35.0020   35.9520   20.0480 C   0  0  0  0  0  0  0  0  0  0  0  0
   36.1110   35.7880   17.9630 C   0  0  0  0  0  0  0  0  0  0  0  0
   33.8570   34.9400   23.5730 C   0  0  0  0  0  0  0  0  0  0  0  0
   37.9850   35.9330   19.3810 F   0  0  0  0  0  0  0  0  0  0  0  0
   35.3640   35.1540   18.9640 O   0  0  0  0  0  0  0  0  0  0  0  0
   34.3160   39.9330   22.6970 N   0  0  0  0  0  0  0  0  0  0  0  0
   34.4250   33.8560   21.0710 O   0  0  0  0  0  0  0  0  0  0  0  0
   34.2400   35.7390   22.3760 N   0  0  0  0  0  0  0  0  0  0  0  0
   33.9720   37.7050   23.6900 N   0  0  0  0  0  0  0  0  0  0  0  0
   33.6430   39.6700   24.9680 N   0  0  0  0  0  0  0  0  0  0  0  0
   39.3340   36.8000   17.2840 H   0  0  0  0  0  0  0  0  0  0  0  0
   35.3140   37.9390   19.2810 H   0  0  0  0  0  0  0  0  0  0  0  0
   35.8510   36.6230   14.6780 H   0  0  0  0  0  0  0  0  0  0  0  0
   34.4570   35.7730   16.5510 H   0  0  0  0  0  0  0  0  0  0  0  0
   34.8530   40.0090   20.6800 H   0  0  0  0  0  0  0  0  0  0  0  0
   34.5440   35.1790   24.4300 H   0  0  0  0  0  0  0  0  0  0  0  0
   32.8070   35.1930   23.8840 H   0  0  0  0  0  0  0  0  0  0  0  0
   33.9190   33.8440   23.3460 H   0  0  0  0  0  0  0  0  0  0  0  0
   33.7260   40.6960   25.0920 H   0  0  0  0  0  0  0  0  0  0  0  0
   38.3720   37.2420   14.8900 F   0  0  0  0  0  0  0  0  0  0  0  0
   32.0990   38.9290   28.3950 C   0  0  0  0  0  0  0  0  0  0  0  0
   32.3910   39.7030   27.0940 C   0  0  0  0  0  0  0  0  0  0  0  0
   33.3250   38.8690   26.1890 C   0  0  0  0  0  0  0  0  0  0  0  0
   34.6160   38.4740   26.9400 C   0  0  0  0  0  0  0  0  0  0  0  0
   34.2630   37.7380   28.2460 C   0  0  0  0  0  0  0  0  0  0  0  0
   33.3470   38.5420   29.1110 N   0  0  0  0  0  0  0  0  0  0  0  0
   31.5450   37.9800   28.1440 H   0  0  0  0  0  0  0  0  0  0  0  0
   31.4340   39.5420   29.0530 H   0  0  0  0  0  0  0  0  0  0  0  0
   32.8530   40.6890   27.3350 H   0  0  0  0  0  0  0  0  0  0  0  0
   31.4300   39.8930   26.5580 H   0  0  0  0  0  0  0  0  0  0  0  0
   32.7780   37.9340   25.8730 H   0  0  0  0  0  0  0  0  0  0  0  0
   35.2190   37.7840   26.2990 H   0  0  0  0  0  0  0  0  0  0  0  0
   35.2240   39.3830   27.1510 H   0  0  0  0  0  0  0  0  0  0  0  0
   33.7310   36.7770   28.0010 H   0  0  0  0  0  0  0  0  0  0  0  0
   35.2020   37.4980   28.8070 H   0  0  0  0  0  0  0  0  0  0  0  0
   33.8970   39.3390   30.1430 C   0  0  0  0  0  0  0  0  0  0  0  0
   35.0290   39.0860   30.5440 O   0  0  0  0  0  0  0  0  0  0  0  0
   33.0370   40.3780   30.7980 C   0  0  0  0  0  0  0  0  0  0  0  0
   32.7450   41.1830   30.0770 H   0  0  0  0  0  0  0  0  0  0  0  0
   32.0970   39.9350   31.2170 H   0  0  0  0  0  0  0  0  0  0  0  0
   33.5790   40.8700   31.6450 H   0  0  0  0  0  0  0  0  0  0  0  0
  1  3  2  0  0  0  0
  1  7  1  0  0  0  0
  1 22  1  0  0  0  0
  2 12  1  0  0  0  0
  2 18  2  0  0  0  0
  2 19  1  0  0  0  0
  3 13  1  0  0  0  0
  3 15  1  0  0  0  0
  4 17  2  0  0  0  0
  4 20  1  0  0  0  0
  4 21  1  0  0  0  0
  5  6  1  0  0  0  0
  5 10  1  0  0  0  0
  5 11  2  0  0  0  0
  6 12  2  0  0  0  0
  6 23  1  0  0  0  0
  7  8  2  0  0  0  0
  7 31  1  0  0  0  0
  8  9  1  0  0  0  0
  8 24  1  0  0  0  0
  9 13  2  0  0  0  0
  9 25  1  0  0  0  0
 10 19  1  0  0  0  0
 10 20  2  0  0  0  0
 11 17  1  0  0  0  0
 11 26  1  0  0  0  0
 12 16  1  0  0  0  0
 13 16  1  0  0  0  0
 14 19  1  0  0  0  0
 14 27  1  0  0  0  0
 14 28  1  0  0  0  0
 14 29  1  0  0  0  0
 21 30  1  0  0  0  0
 21 34  1  0  0  0  0
 32 33  1  0  0  0  0
 32 37  1  0  0  0  0
 32 38  1  0  0  0  0
 32 39  1  0  0  0  0
 33 34  1  0  0  0  0
 33 40  1  0  0  0  0
 33 41  1  0  0  0  0
 34 35  1  0  0  0  0
 34 42  1  0  0  0  0
 35 36  1  0  0  0  0
 35 43  1  0  0  0  0
 35 44  1  0  0  0  0
 36 37  1  0  0  0  0
 36 45  1  0  0  0  0
 36 46  1  0  0  0  0
 37 47  1  0  0  0  0
 47 48  2  0  0  0  0
 47 49  1  0  0  0  0
 49 50  1  0  0  0  0
 49 51  1  0  0  0  0
 49 52  1  0  0  0  0
M  END
$$$$
