18658-1
 OpenBabel02232411163D
Structure written by MMmdl.
 47 48  0  0  0  0  0  0  0  0999 V2000
   23.0890   12.2840   28.7610 O   0  0  0  0  0  0  0  0  0  0  0  0
   23.4460   10.9580   29.2160 C   0  0  0  0  0  0  0  0  0  0  0  0
   23.5730   11.0470   30.7330 C   0  0  0  0  0  0  0  0  0  0  0  0
   22.2560   11.1550   31.3740 O   0  0  0  0  0  0  0  0  0  0  0  0
   21.5660   10.0240   31.6580 C   0  0  0  0  0  0  0  0  0  0  0  0
   22.0160    8.8380   31.1900 N   0  0  0  0  0  0  0  0  0  0  0  0
   21.2550    7.7120   31.4720 C   0  0  0  0  0  0  0  0  0  0  0  0
   20.0950    7.7620   32.2390 C   0  0  0  0  0  0  0  0  0  0  0  0
   19.6370    9.0130   32.7320 C   0  0  0  0  0  0  0  0  0  0  0  0
   18.4910    9.0650   33.4830 N   0  0  0  0  0  0  0  0  0  0  0  0
   20.3740   10.2010   32.4200 C   0  0  0  0  0  0  0  0  0  0  0  0
   19.9780   11.5060   32.7830 C   0  0  0  0  0  0  0  0  0  0  0  0
   19.7040   12.6050   33.0310 N   0  0  0  0  0  0  0  0  0  0  0  0
   21.7980    6.5540   30.8770 N   0  0  0  0  0  0  0  0  0  0  0  0
   21.1810    5.2850   30.7760 C   0  0  0  0  0  0  0  0  0  0  0  0
   20.1020    5.0400   31.2700 O   0  0  0  0  0  0  0  0  0  0  0  0
   21.9720    4.3010   29.9250 C   0  0  0  0  0  0  0  0  0  0  0  0
   23.3010    3.9460   30.5230 C   0  0  0  0  0  0  0  0  0  0  0  0
   24.4340    4.7620   30.2940 C   0  0  0  0  0  0  0  0  0  0  0  0
   24.1700    5.8460   29.4610 O   0  0  0  0  0  0  0  0  0  0  0  0
   25.1910    6.8720   29.3490 C   0  0  0  0  0  0  0  0  0  0  0  0
   25.6830    4.4620   30.8500 C   0  0  0  0  0  0  0  0  0  0  0  0
   25.8240    3.3280   31.6450 C   0  0  0  0  0  0  0  0  0  0  0  0
   24.7050    2.5000   31.8610 C   0  0  0  0  0  0  0  0  0  0  0  0
   23.4520    2.7960   31.3040 C   0  0  0  0  0  0  0  0  0  0  0  0
   24.9870    1.4220   32.6750 O   0  0  0  0  0  0  0  0  0  0  0  0
   23.9830    0.3820   32.7910 C   0  0  0  0  0  0  0  0  0  0  0  0
   22.9360   12.2160   27.7600 H   0  0  0  0  0  0  0  0  0  0  0  0
   22.6540   10.2400   28.9000 H   0  0  0  0  0  0  0  0  0  0  0  0
   24.4360   10.6840   28.7680 H   0  0  0  0  0  0  0  0  0  0  0  0
   24.0220   12.0210   31.0490 H   0  0  0  0  0  0  0  0  0  0  0  0
   24.1360   10.1720   31.1390 H   0  0  0  0  0  0  0  0  0  0  0  0
   19.5200    6.8590   32.4520 H   0  0  0  0  0  0  0  0  0  0  0  0
   17.9870    8.1970   33.7500 H   0  0  0  0  0  0  0  0  0  0  0  0
   18.1100    9.9520   33.8110 H   0  0  0  0  0  0  0  0  0  0  0  0
   22.7260    6.6910   30.4010 H   0  0  0  0  0  0  0  0  0  0  0  0
   21.3580    3.3750   29.7860 H   0  0  0  0  0  0  0  0  0  0  0  0
   22.1390    4.7740   28.9180 H   0  0  0  0  0  0  0  0  0  0  0  0
   26.0670    6.4650   28.8000 H   0  0  0  0  0  0  0  0  0  0  0  0
   24.6620    7.6490   28.7510 H   0  0  0  0  0  0  0  0  0  0  0  0
   25.4700    7.2570   30.3530 H   0  0  0  0  0  0  0  0  0  0  0  0
   26.5550    5.0960   30.6670 H   0  0  0  0  0  0  0  0  0  0  0  0
   26.7940    3.0830   32.0860 H   0  0  0  0  0  0  0  0  0  0  0  0
   22.5980    2.1410   31.4760 H   0  0  0  0  0  0  0  0  0  0  0  0
   24.5120   -0.3720   33.4230 H   0  0  0  0  0  0  0  0  0  0  0  0
   23.0810    0.7740   33.3080 H   0  0  0  0  0  0  0  0  0  0  0  0
   23.7490   -0.0340   31.7870 H   0  0  0  0  0  0  0  0  0  0  0  0
  1  2  1  0  0  0  0
  1 28  1  0  0  0  0
  2  3  1  0  0  0  0
  2 29  1  0  0  0  0
  2 30  1  0  0  0  0
  3  4  1  0  0  0  0
  3 31  1  0  0  0  0
  3 32  1  0  0  0  0
  4  5  1  0  0  0  0
  5 11  2  0  0  0  0
  5  6  1  0  0  0  0
  6  7  2  0  0  0  0
  7  8  1  0  0  0  0
  7 14  1  0  0  0  0
  8  9  2  0  0  0  0
  8 33  1  0  0  0  0
  9 10  1  0  0  0  0
  9 11  1  0  0  0  0
 10 34  1  0  0  0  0
 10 35  1  0  0  0  0
 11 12  1  0  0  0  0
 12 13  3  0  0  0  0
 14 15  1  0  0  0  0
 14 36  1  0  0  0  0
 15 16  2  0  0  0  0
 15 17  1  0  0  0  0
 17 18  1  0  0  0  0
 17 37  1  0  0  0  0
 17 38  1  0  0  0  0
 18 25  2  0  0  0  0
 18 19  1  0  0  0  0
 19 20  1  0  0  0  0
 19 22  2  0  0  0  0
 20 21  1  0  0  0  0
 21 39  1  0  0  0  0
 21 40  1  0  0  0  0
 21 41  1  0  0  0  0
 22 23  1  0  0  0  0
 22 42  1  0  0  0  0
 23 24  2  0  0  0  0
 23 43  1  0  0  0  0
 24 25  1  0  0  0  0
 24 26  1  0  0  0  0
 25 44  1  0  0  0  0
 26 27  1  0  0  0  0
 27 45  1  0  0  0  0
 27 46  1  0  0  0  0
 27 47  1  0  0  0  0
M  END
$$$$
