p38a_2ff
 OpenBabel02232411163D
Structure written by MMmdl.
 49 52  0  0  1  0  0  0  0  0999 V2000
   36.3430   36.0020   15.8540 C   0  0  0  0  0  0  0  0  0  0  0  0
   34.5410   35.0740   21.4260 C   0  0  0  0  0  0  0  0  0  0  0  0
   35.6670   35.5460   16.9810 C   0  0  0  0  0  0  0  0  0  0  0  0
   34.1460   39.2240   23.8820 C   0  0  0  0  0  0  0  0  0  0  0  0
   34.7620   37.9400   21.5160 C   0  0  0  0  0  0  0  0  0  0  0  0
   35.1800   37.2400   20.3330 C   0  0  0  0  0  0  0  0  0  0  0  0
   37.6360   36.5000   16.0600 C   0  0  0  0  0  0  0  0  0  0  0  0
   38.2640   36.5180   17.3090 C   0  0  0  0  0  0  0  0  0  0  0  0
   37.5500   36.0860   18.4320 C   0  0  0  0  0  0  0  0  0  0  0  0
   34.3590   37.2140   22.6760 C   0  0  0  0  0  0  0  0  0  0  0  0
   34.7420   39.3580   21.6110 C   0  0  0  0  0  0  0  0  0  0  0  0
   35.1110   35.8890   20.3190 C   0  0  0  0  0  0  0  0  0  0  0  0
   36.2500   35.6020   18.2640 C   0  0  0  0  0  0  0  0  0  0  0  0
   33.8390   35.0780   23.8530 C   0  0  0  0  0  0  0  0  0  0  0  0
   34.4500   35.0290   16.8730 F   0  0  0  0  0  0  0  0  0  0  0  0
   35.4950   35.0260   19.2930 O   0  0  0  0  0  0  0  0  0  0  0  0
   34.4420   40.0080   22.7430 N   0  0  0  0  0  0  0  0  0  0  0  0
   34.3090   33.8860   21.3750 O   0  0  0  0  0  0  0  0  0  0  0  0
   34.2530   35.8140   22.6260 N   0  0  0  0  0  0  0  0  0  0  0  0
   34.0530   37.8480   23.8560 N   0  0  0  0  0  0  0  0  0  0  0  0
   33.9880   39.9190   25.0570 N   0  0  0  0  0  0  0  0  0  0  0  0
   35.8830   35.9970   14.8630 H   0  0  0  0  0  0  0  0  0  0  0  0
   35.5590   37.8290   19.4940 H   0  0  0  0  0  0  0  0  0  0  0  0
   39.2860   36.8920   17.4150 H   0  0  0  0  0  0  0  0  0  0  0  0
   38.0060   36.1530   19.4230 H   0  0  0  0  0  0  0  0  0  0  0  0
   34.9730   39.9690   20.7240 H   0  0  0  0  0  0  0  0  0  0  0  0
   34.5860   35.2580   24.6730 H   0  0  0  0  0  0  0  0  0  0  0  0
   32.8360   35.4450   24.2020 H   0  0  0  0  0  0  0  0  0  0  0  0
   33.7780   33.9780   23.6460 H   0  0  0  0  0  0  0  0  0  0  0  0
   33.9570   40.9570   25.0200 H   0  0  0  0  0  0  0  0  0  0  0  0
   38.2820   37.0140   15.0160 F   0  0  0  0  0  0  0  0  0  0  0  0
   34.0620   37.8330   28.3010 C   0  0  0  0  0  0  0  0  0  0  0  0
   34.5180   38.3110   26.9160 C   0  0  0  0  0  0  0  0  0  0  0  0
   33.5350   39.3680   26.3700 C   0  0  2  0  0  0  0  0  0  0  0  0
   32.0880   38.8280   26.3030 C   0  0  0  0  0  0  0  0  0  0  0  0
   31.6410   38.3570   27.6950 C   0  0  0  0  0  0  0  0  0  0  0  0
   32.6200   37.2960   28.2350 C   0  0  2  0  0  0  0  0  0  0  0  0
   34.1290   38.6770   29.0290 H   0  0  0  0  0  0  0  0  0  0  0  0
   34.7460   37.0220   28.6490 H   0  0  0  0  0  0  0  0  0  0  0  0
   34.5690   37.4350   26.2250 H   0  0  0  0  0  0  0  0  0  0  0  0
   35.5370   38.7590   26.9930 H   0  0  0  0  0  0  0  0  0  0  0  0
   33.5510   40.2610   27.0640 H   0  0  0  0  0  0  0  0  0  0  0  0
   31.4070   39.6360   25.9480 H   0  0  0  0  0  0  0  0  0  0  0  0
   32.0320   37.9730   25.5880 H   0  0  0  0  0  0  0  0  0  0  0  0
   31.6040   39.2280   28.3890 H   0  0  0  0  0  0  0  0  0  0  0  0
   30.6160   37.9240   27.6270 H   0  0  0  0  0  0  0  0  0  0  0  0
   32.5680   36.3570   27.6320 H   0  0  0  0  0  0  0  0  0  0  0  0
   32.1970   36.8440   29.5370 O   0  0  0  0  0  0  0  0  0  0  0  0
   32.2180   37.5980   30.1780 H   0  0  0  0  0  0  0  0  0  0  0  0
  1  3  2  0  0  0  0
  1  7  1  0  0  0  0
  1 22  1  0  0  0  0
  2 12  1  0  0  0  0
  2 18  2  0  0  0  0
  2 19  1  0  0  0  0
  3 13  1  0  0  0  0
  3 15  1  0  0  0  0
  4 17  2  0  0  0  0
  4 20  1  0  0  0  0
  4 21  1  0  0  0  0
  5  6  1  0  0  0  0
  5 10  1  0  0  0  0
  5 11  2  0  0  0  0
  6 12  2  0  0  0  0
  6 23  1  0  0  0  0
  7  8  2  0  0  0  0
  7 31  1  0  0  0  0
  8  9  1  0  0  0  0
  8 24  1  0  0  0  0
  9 13  2  0  0  0  0
  9 25  1  0  0  0  0
 10 19  1  0  0  0  0
 10 20  2  0  0  0  0
 11 17  1  0  0  0  0
 11 26  1  0  0  0  0
 12 16  1  0  0  0  0
 13 16  1  0  0  0  0
 14 19  1  0  0  0  0
 14 27  1  0  0  0  0
 14 28  1  0  0  0  0
 14 29  1  0  0  0  0
 21 30  1  0  0  0  0
 21 34  1  0  0  0  0
 32 33  1  0  0  0  0
 32 37  1  0  0  0  0
 32 38  1  0  0  0  0
 32 39  1  0  0  0  0
 33 34  1  0  0  0  0
 33 40  1  0  0  0  0
 33 41  1  0  0  0  0
 34 35  1  0  0  0  0
 34 42  1  6  0  0  0
 35 36  1  0  0  0  0
 35 43  1  0  0  0  0
 35 44  1  0  0  0  0
 36 37  1  0  0  0  0
 36 45  1  0  0  0  0
 36 46  1  0  0  0  0
 37 47  1  1  0  0  0
 37 48  1  0  0  0  0
 48 49  1  0  0  0  0
M  END
$$$$
