p38a_2v
 OpenBabel02232411163D
Structure written by MMmdl.
 35 37  0  0  0  0  0  0  0  0999 V2000
   38.2620   36.5270   17.1820 C   0  0  0  0  0  0  0  0  0  0  0  0
   34.4850   35.1170   21.2360 C   0  0  0  0  0  0  0  0  0  0  0  0
   37.4700   36.0770   18.2350 C   0  0  0  0  0  0  0  0  0  0  0  0
   33.9580   39.2090   23.7620 C   0  0  0  0  0  0  0  0  0  0  0  0
   33.1810   39.1420   26.1330 C   0  0  0  0  0  0  0  0  0  0  0  0
   34.6080   37.9930   21.3750 C   0  0  0  0  0  0  0  0  0  0  0  0
   35.0160   37.3270   20.1690 C   0  0  0  0  0  0  0  0  0  0  0  0
   37.6220   36.6900   15.9460 C   0  0  0  0  0  0  0  0  0  0  0  0
   36.2720   36.4000   15.7330 C   0  0  0  0  0  0  0  0  0  0  0  0
   35.5000   35.9370   16.8050 C   0  0  0  0  0  0  0  0  0  0  0  0
   34.1990   37.2320   22.5110 C   0  0  0  0  0  0  0  0  0  0  0  0
   34.6020   39.4070   21.5130 C   0  0  0  0  0  0  0  0  0  0  0  0
   34.9860   35.9750   20.1300 C   0  0  0  0  0  0  0  0  0  0  0  0
   36.1050   35.7670   18.0530 C   0  0  0  0  0  0  0  0  0  0  0  0
   33.6690   35.0620   23.6220 C   0  0  0  0  0  0  0  0  0  0  0  0
   37.9950   35.9370   19.4450 F   0  0  0  0  0  0  0  0  0  0  0  0
   35.3760   35.1480   19.0770 O   0  0  0  0  0  0  0  0  0  0  0  0
   34.2920   40.0250   22.6620 N   0  0  0  0  0  0  0  0  0  0  0  0
   34.3630   33.9120   21.1930 O   0  0  0  0  0  0  0  0  0  0  0  0
   34.1290   35.8310   22.4330 N   0  0  0  0  0  0  0  0  0  0  0  0
   33.8620   37.8320   23.6990 N   0  0  0  0  0  0  0  0  0  0  0  0
   33.7850   39.8370   24.9740 N   0  0  0  0  0  0  0  0  0  0  0  0
   39.3180   36.7780   17.3200 H   0  0  0  0  0  0  0  0  0  0  0  0
   33.7180   38.1780   26.3440 H   0  0  0  0  0  0  0  0  0  0  0  0
   35.3470   37.9400   19.3270 H   0  0  0  0  0  0  0  0  0  0  0  0
   35.8080   36.5450   14.7550 H   0  0  0  0  0  0  0  0  0  0  0  0
   34.4360   35.7260   16.6580 H   0  0  0  0  0  0  0  0  0  0  0  0
   34.8500   40.0450   20.6480 H   0  0  0  0  0  0  0  0  0  0  0  0
   34.3040   35.3110   24.5160 H   0  0  0  0  0  0  0  0  0  0  0  0
   32.6040   35.3270   23.8620 H   0  0  0  0  0  0  0  0  0  0  0  0
   33.7370   33.9600   23.4240 H   0  0  0  0  0  0  0  0  0  0  0  0
   33.7100   40.8710   25.0130 H   0  0  0  0  0  0  0  0  0  0  0  0
   38.3290   37.1840   14.9320 F   0  0  0  0  0  0  0  0  0  0  0  0
   33.2860   39.8130   27.0280 H   0  0  0  0  0  0  0  0  0  0  0  0
   32.0950   38.9210   25.9660 H   0  0  0  0  0  0  0  0  0  0  0  0
  1  3  2  0  0  0  0
  1  8  1  0  0  0  0
  1 23  1  0  0  0  0
  2 13  1  0  0  0  0
  2 19  2  0  0  0  0
  2 20  1  0  0  0  0
  3 14  1  0  0  0  0
  3 16  1  0  0  0  0
  4 18  2  0  0  0  0
  4 21  1  0  0  0  0
  4 22  1  0  0  0  0
  5 22  1  0  0  0  0
  5 24  1  0  0  0  0
  5 34  1  0  0  0  0
  5 35  1  0  0  0  0
  6  7  1  0  0  0  0
  6 11  1  0  0  0  0
  6 12  2  0  0  0  0
  7 13  2  0  0  0  0
  7 25  1  0  0  0  0
  8  9  2  0  0  0  0
  8 33  1  0  0  0  0
  9 10  1  0  0  0  0
  9 26  1  0  0  0  0
 10 14  2  0  0  0  0
 10 27  1  0  0  0  0
 11 20  1  0  0  0  0
 11 21  2  0  0  0  0
 12 18  1  0  0  0  0
 12 28  1  0  0  0  0
 13 17  1  0  0  0  0
 14 17  1  0  0  0  0
 15 20  1  0  0  0  0
 15 29  1  0  0  0  0
 15 30  1  0  0  0  0
 15 31  1  0  0  0  0
 22 32  1  0  0  0  0
M  END
$$$$
