18638-1
 OpenBabel02232411163D
Structure written by MMmdl.
 52 53  0  0  0  0  0  0  0  0999 V2000
   24.0250   12.4470   30.3280 C   0  0  0  0  0  0  0  0  0  0  0  0
   23.5580   11.0080   30.4410 C   0  0  0  0  0  0  0  0  0  0  0  0
   22.3010   11.1260   31.2250 O   0  0  0  0  0  0  0  0  0  0  0  0
   21.6580    9.9970   31.5850 C   0  0  0  0  0  0  0  0  0  0  0  0
   22.1290    8.7980   31.1620 N   0  0  0  0  0  0  0  0  0  0  0  0
   21.3930    7.6730   31.4990 C   0  0  0  0  0  0  0  0  0  0  0  0
   20.2360    7.7340   32.2710 C   0  0  0  0  0  0  0  0  0  0  0  0
   19.7540    8.9930   32.7170 C   0  0  0  0  0  0  0  0  0  0  0  0
   18.5960    9.0540   33.4520 N   0  0  0  0  0  0  0  0  0  0  0  0
   20.4790   10.1770   32.3690 C   0  0  0  0  0  0  0  0  0  0  0  0
   20.0790   11.4840   32.7240 C   0  0  0  0  0  0  0  0  0  0  0  0
   19.7970   12.5790   32.9810 N   0  0  0  0  0  0  0  0  0  0  0  0
   21.9360    6.4830   30.9530 N   0  0  0  0  0  0  0  0  0  0  0  0
   21.2590    5.2470   30.8700 C   0  0  0  0  0  0  0  0  0  0  0  0
   20.1850    5.0490   31.3970 O   0  0  0  0  0  0  0  0  0  0  0  0
   21.9440    4.2180   29.9850 C   0  0  0  0  0  0  0  0  0  0  0  0
   23.3040    3.7720   30.4310 C   0  0  0  0  0  0  0  0  0  0  0  0
   24.4670    4.4660   29.9870 C   0  0  0  0  0  0  0  0  0  0  0  0
   24.1640    5.6000   29.2400 O   0  0  0  0  0  0  0  0  0  0  0  0
   25.2160    6.5910   29.0830 C   0  0  0  0  0  0  0  0  0  0  0  0
   25.7460    3.9790   30.2370 C   0  0  0  0  0  0  0  0  0  0  0  0
   25.9240    2.8070   30.9950 C   0  0  0  0  0  0  0  0  0  0  0  0
   27.5540    2.1770   31.1610 S   0  0  0  0  0  0  0  0  0  0  0  0
   28.5430    3.2720   31.0140 O   0  0  0  0  0  0  0  0  0  0  0  0
   27.6970    1.5160   32.4780 O   0  0  0  0  0  0  0  0  0  0  0  0
   27.6920    1.0400   29.8570 C   0  0  0  0  0  0  0  0  0  0  0  0
   24.7840    2.1720   31.5080 C   0  0  0  0  0  0  0  0  0  0  0  0
   23.4780    2.6350   31.2040 C   0  0  0  0  0  0  0  0  0  0  0  0
   25.0290    1.1090   32.3410 O   0  0  0  0  0  0  0  0  0  0  0  0
   23.9390    0.1800   32.6030 C   0  0  0  0  0  0  0  0  0  0  0  0
   24.2810   12.8720   31.3240 H   0  0  0  0  0  0  0  0  0  0  0  0
   23.2410   13.0850   29.8550 H   0  0  0  0  0  0  0  0  0  0  0  0
   24.9360   12.4770   29.6780 H   0  0  0  0  0  0  0  0  0  0  0  0
   23.2960   10.5650   29.4540 H   0  0  0  0  0  0  0  0  0  0  0  0
   24.2680   10.3700   31.0130 H   0  0  0  0  0  0  0  0  0  0  0  0
   19.6770    6.8300   32.5240 H   0  0  0  0  0  0  0  0  0  0  0  0
   18.0910    8.1910   33.7270 H   0  0  0  0  0  0  0  0  0  0  0  0
   18.2040    9.9470   33.7520 H   0  0  0  0  0  0  0  0  0  0  0  0
   22.8490    6.5790   30.4490 H   0  0  0  0  0  0  0  0  0  0  0  0
   21.2760    3.3180   29.9120 H   0  0  0  0  0  0  0  0  0  0  0  0
   22.0350    4.6760   28.9580 H   0  0  0  0  0  0  0  0  0  0  0  0
   24.6400    7.4660   28.7000 H   0  0  0  0  0  0  0  0  0  0  0  0
   25.6900    6.8190   30.0620 H   0  0  0  0  0  0  0  0  0  0  0  0
   25.9500    6.2250   28.3350 H   0  0  0  0  0  0  0  0  0  0  0  0
   26.6150    4.5030   29.8190 H   0  0  0  0  0  0  0  0  0  0  0  0
   27.6070    1.5390   28.8550 H   0  0  0  0  0  0  0  0  0  0  0  0
   28.6730    0.4980   29.8570 H   0  0  0  0  0  0  0  0  0  0  0  0
   26.8910    0.2560   29.8830 H   0  0  0  0  0  0  0  0  0  0  0  0
   22.6070    2.0850   31.5630 H   0  0  0  0  0  0  0  0  0  0  0  0
   23.5560   -0.2260   31.6430 H   0  0  0  0  0  0  0  0  0  0  0  0
   23.1470    0.6680   33.2090 H   0  0  0  0  0  0  0  0  0  0  0  0
   24.4590   -0.6150   33.1920 H   0  0  0  0  0  0  0  0  0  0  0  0
  1  2  1  0  0  0  0
  1 31  1  0  0  0  0
  1 32  1  0  0  0  0
  1 33  1  0  0  0  0
  2  3  1  0  0  0  0
  2 34  1  0  0  0  0
  2 35  1  0  0  0  0
  3  4  1  0  0  0  0
  4 10  2  0  0  0  0
  4  5  1  0  0  0  0
  5  6  2  0  0  0  0
  6  7  1  0  0  0  0
  6 13  1  0  0  0  0
  7  8  2  0  0  0  0
  7 36  1  0  0  0  0
  8  9  1  0  0  0  0
  8 10  1  0  0  0  0
  9 37  1  0  0  0  0
  9 38  1  0  0  0  0
 10 11  1  0  0  0  0
 11 12  3  0  0  0  0
 13 14  1  0  0  0  0
 13 39  1  0  0  0  0
 14 15  2  0  0  0  0
 14 16  1  0  0  0  0
 16 17  1  0  0  0  0
 16 40  1  0  0  0  0
 16 41  1  0  0  0  0
 17 28  2  0  0  0  0
 17 18  1  0  0  0  0
 18 19  1  0  0  0  0
 18 21  2  0  0  0  0
 19 20  1  0  0  0  0
 20 42  1  0  0  0  0
 20 43  1  0  0  0  0
 20 44  1  0  0  0  0
 21 22  1  0  0  0  0
 21 45  1  0  0  0  0
 22 23  1  0  0  0  0
 22 27  2  0  0  0  0
 23 24  2  0  0  0  0
 23 25  2  0  0  0  0
 23 26  1  0  0  0  0
 26 46  1  0  0  0  0
 26 47  1  0  0  0  0
 26 48  1  0  0  0  0
 27 28  1  0  0  0  0
 27 29  1  0  0  0  0
 28 49  1  0  0  0  0
 29 30  1  0  0  0  0
 30 50  1  0  0  0  0
 30 51  1  0  0  0  0
 30 52  1  0  0  0  0
M  END
$$$$
