18639-1
 OpenBabel02232411163D
Structure written by MMmdl.
 48 49  0  0  0  0  0  0  0  0999 V2000
   23.2010   10.7820   29.0620 C   0  0  0  0  0  0  0  0  0  0  0  0
   23.4800   11.0340   30.5290 C   0  0  0  0  0  0  0  0  0  0  0  0
   22.2170   11.1450   31.2890 O   0  0  0  0  0  0  0  0  0  0  0  0
   21.5570   10.0180   31.6350 C   0  0  0  0  0  0  0  0  0  0  0  0
   22.0250    8.8190   31.2170 N   0  0  0  0  0  0  0  0  0  0  0  0
   21.2800    7.6950   31.5320 C   0  0  0  0  0  0  0  0  0  0  0  0
   20.1130    7.7500   32.2850 C   0  0  0  0  0  0  0  0  0  0  0  0
   19.6420    9.0110   32.7440 C   0  0  0  0  0  0  0  0  0  0  0  0
   18.4870    9.0700   33.4810 N   0  0  0  0  0  0  0  0  0  0  0  0
   20.3730   10.1960   32.4110 C   0  0  0  0  0  0  0  0  0  0  0  0
   19.9780   11.5020   32.7700 C   0  0  0  0  0  0  0  0  0  0  0  0
   19.7050   12.6010   33.0250 N   0  0  0  0  0  0  0  0  0  0  0  0
   21.8560    6.5270   30.9810 N   0  0  0  0  0  0  0  0  0  0  0  0
   21.2560    5.2550   30.8840 C   0  0  0  0  0  0  0  0  0  0  0  0
   20.1600    5.0080   31.3400 O   0  0  0  0  0  0  0  0  0  0  0  0
   22.0830    4.2570   30.0810 C   0  0  0  0  0  0  0  0  0  0  0  0
   23.4520    3.9940   30.6360 C   0  0  0  0  0  0  0  0  0  0  0  0
   24.5450    4.8580   30.3110 C   0  0  0  0  0  0  0  0  0  0  0  0
   24.1830    5.9020   29.4690 O   0  0  0  0  0  0  0  0  0  0  0  0
   25.1310    6.9940   29.3050 C   0  0  0  0  0  0  0  0  0  0  0  0
   25.8270    4.6230   30.7850 C   0  0  0  0  0  0  0  0  0  0  0  0
   26.0630    3.5110   31.6200 C   0  0  0  0  0  0  0  0  0  0  0  0
   27.4180    3.2630   32.1210 N   0  3  0  0  0  0  0  0  0  0  0  0
   27.5560    2.4770   33.0470 O   0  5  0  0  0  0  0  0  0  0  0  0
   28.3550    3.8450   31.5890 O   0  0  0  0  0  0  0  0  0  0  0  0
   24.9950    2.6440   31.9470 C   0  0  0  0  0  0  0  0  0  0  0  0
   23.6980    2.8920   31.4390 C   0  0  0  0  0  0  0  0  0  0  0  0
   25.3480    1.6100   32.7610 O   0  0  0  0  0  0  0  0  0  0  0  0
   24.3530    0.5720   33.0090 C   0  0  0  0  0  0  0  0  0  0  0  0
   24.1610   10.8360   28.4910 H   0  0  0  0  0  0  0  0  0  0  0  0
   22.5060   11.5450   28.6440 H   0  0  0  0  0  0  0  0  0  0  0  0
   22.7580    9.7710   28.9030 H   0  0  0  0  0  0  0  0  0  0  0  0
   23.8900   12.0560   30.7110 H   0  0  0  0  0  0  0  0  0  0  0  0
   24.1160   10.2380   30.9780 H   0  0  0  0  0  0  0  0  0  0  0  0
   19.5440    6.8460   32.5120 H   0  0  0  0  0  0  0  0  0  0  0  0
   17.9810    8.2040   33.7480 H   0  0  0  0  0  0  0  0  0  0  0  0
   18.0960    9.9600   33.7860 H   0  0  0  0  0  0  0  0  0  0  0  0
   22.7790    6.6740   30.4990 H   0  0  0  0  0  0  0  0  0  0  0  0
   21.5130    3.2910   30.0250 H   0  0  0  0  0  0  0  0  0  0  0  0
   22.1880    4.6700   29.0380 H   0  0  0  0  0  0  0  0  0  0  0  0
   25.4470    7.3910   30.2940 H   0  0  0  0  0  0  0  0  0  0  0  0
   25.9880    6.6420   28.6920 H   0  0  0  0  0  0  0  0  0  0  0  0
   24.5110    7.7380   28.7550 H   0  0  0  0  0  0  0  0  0  0  0  0
   26.6640    5.2770   30.5120 H   0  0  0  0  0  0  0  0  0  0  0  0
   22.8850    2.2020   31.6780 H   0  0  0  0  0  0  0  0  0  0  0  0
   24.9410   -0.1570   33.6160 H   0  0  0  0  0  0  0  0  0  0  0  0
   23.5060    0.9870   33.5970 H   0  0  0  0  0  0  0  0  0  0  0  0
   24.0250    0.1190   32.0480 H   0  0  0  0  0  0  0  0  0  0  0  0
  1  2  1  0  0  0  0
  1 30  1  0  0  0  0
  1 31  1  0  0  0  0
  1 32  1  0  0  0  0
  2  3  1  0  0  0  0
  2 33  1  0  0  0  0
  2 34  1  0  0  0  0
  3  4  1  0  0  0  0
  4 10  2  0  0  0  0
  4  5  1  0  0  0  0
  5  6  2  0  0  0  0
  6  7  1  0  0  0  0
  6 13  1  0  0  0  0
  7  8  2  0  0  0  0
  7 35  1  0  0  0  0
  8  9  1  0  0  0  0
  8 10  1  0  0  0  0
  9 36  1  0  0  0  0
  9 37  1  0  0  0  0
 10 11  1  0  0  0  0
 11 12  3  0  0  0  0
 13 14  1  0  0  0  0
 13 38  1  0  0  0  0
 14 15  2  0  0  0  0
 14 16  1  0  0  0  0
 16 17  1  0  0  0  0
 16 39  1  0  0  0  0
 16 40  1  0  0  0  0
 17 27  2  0  0  0  0
 17 18  1  0  0  0  0
 18 19  1  0  0  0  0
 18 21  2  0  0  0  0
 19 20  1  0  0  0  0
 20 41  1  0  0  0  0
 20 42  1  0  0  0  0
 20 43  1  0  0  0  0
 21 22  1  0  0  0  0
 21 44  1  0  0  0  0
 22 23  1  0  0  0  0
 22 26  2  0  0  0  0
 23 24  1  0  0  0  0
 23 25  2  0  0  0  0
 26 27  1  0  0  0  0
 26 28  1  0  0  0  0
 27 45  1  0  0  0  0
 28 29  1  0  0  0  0
 29 46  1  0  0  0  0
 29 47  1  0  0  0  0
 29 48  1  0  0  0  0
M  CHG  2  23   1  24  -1
M  END
$$$$
