26
 OpenBabel02232411153D
Structure written by MMmdl.
 49 52  0  0  0  0  0  0  0  0999 V2000
    1.9360   28.9010    6.8150 C   0  0  0  0  0  0  0  0  0  0  0  0
   -1.5800   31.4640    7.9480 C   0  0  0  0  0  0  0  0  0  0  0  0
   -0.0180   26.0150    8.9200 C   0  0  0  0  0  0  0  0  0  0  0  0
   -0.8330   25.2910    9.9990 C   0  0  0  0  0  0  0  0  0  0  0  0
   -0.6350   23.7720    9.7930 C   0  0  0  0  0  0  0  0  0  0  0  0
   -1.3400   22.9660   10.8930 C   0  0  0  0  0  0  0  0  0  0  0  0
   -0.8860   23.4040   12.2950 C   0  0  0  0  0  0  0  0  0  0  0  0
   -1.0920   24.9130   12.5030 C   0  0  0  0  0  0  0  0  0  0  0  0
   -0.3890   25.7300   11.4080 C   0  0  0  0  0  0  0  0  0  0  0  0
    5.3770   25.6900    5.5010 C   0  0  0  0  0  0  0  0  0  0  0  0
    5.1920   24.8560    6.6210 C   0  0  0  0  0  0  0  0  0  0  0  0
    4.3940   25.2500    7.6990 C   0  0  0  0  0  0  0  0  0  0  0  0
    3.7310   26.4790    7.6490 C   0  0  0  0  0  0  0  0  0  0  0  0
    1.2190   27.9360    7.5220 N   0  0  0  0  0  0  0  0  0  0  0  0
    0.0150   28.2550    8.0580 C   0  0  0  0  0  0  0  0  0  0  0  0
   -0.6630   27.3450    8.7780 O   0  0  0  0  0  0  0  0  0  0  0  0
   -0.5240   29.5570    7.8820 C   0  0  0  0  0  0  0  0  0  0  0  0
   -1.6760   30.1960    8.3530 N   0  0  0  0  0  0  0  0  0  0  0  0
   -0.3680   31.7100    7.2090 N   0  0  0  0  0  0  0  0  0  0  0  0
    0.3040   30.4940    7.1380 C   0  0  0  0  0  0  0  0  0  0  0  0
    1.5050   30.1940    6.5490 N   0  0  0  0  0  0  0  0  0  0  0  0
    3.2080   28.5680    6.3830 N   0  0  0  0  0  0  0  0  0  0  0  0
    3.8510   27.2900    6.5110 C   0  0  0  0  0  0  0  0  0  0  0  0
    4.7030   26.9020    5.4500 C   0  0  0  0  0  0  0  0  0  0  0  0
   -2.2880   32.2640    8.1430 H   0  0  0  0  0  0  0  0  0  0  0  0
    1.0410   26.1560    9.2310 H   0  0  0  0  0  0  0  0  0  0  0  0
   -0.1010   25.5290    7.9260 H   0  0  0  0  0  0  0  0  0  0  0  0
   -1.9160   25.5350    9.8810 H   0  0  0  0  0  0  0  0  0  0  0  0
   -1.0440   23.4750    8.8030 H   0  0  0  0  0  0  0  0  0  0  0  0
    0.4570   23.5330    9.8150 H   0  0  0  0  0  0  0  0  0  0  0  0
   -2.4380   23.1160   10.8080 H   0  0  0  0  0  0  0  0  0  0  0  0
   -1.1120   21.8820   10.7610 H   0  0  0  0  0  0  0  0  0  0  0  0
   -1.4660   22.8410   13.0620 H   0  0  0  0  0  0  0  0  0  0  0  0
    0.1960   23.1620   12.4180 H   0  0  0  0  0  0  0  0  0  0  0  0
   -2.1820   25.1400   12.5080 H   0  0  0  0  0  0  0  0  0  0  0  0
   -0.6690   25.2040   13.4930 H   0  0  0  0  0  0  0  0  0  0  0  0
    0.7140   25.5880   11.5180 H   0  0  0  0  0  0  0  0  0  0  0  0
   -0.6210   26.8090   11.5500 H   0  0  0  0  0  0  0  0  0  0  0  0
    6.0320   25.3860    4.6810 H   0  0  0  0  0  0  0  0  0  0  0  0
    4.2700   24.6190    8.5820 H   0  0  0  0  0  0  0  0  0  0  0  0
    3.1200   26.7840    8.5030 H   0  0  0  0  0  0  0  0  0  0  0  0
   -0.1100   32.5960    6.7490 H   0  0  0  0  0  0  0  0  0  0  0  0
    3.6870   29.2170    5.7160 H   0  0  0  0  0  0  0  0  0  0  0  0
    4.8350   27.5530    4.5820 H   0  0  0  0  0  0  0  0  0  0  0  0
    5.9250   23.6810    6.5630 O   0  0  0  0  0  0  0  0  0  0  0  0
    5.3300   22.5250    7.2080 C   0  0  0  0  0  0  0  0  0  0  0  0
    6.0800   21.7320    6.9870 H   0  0  0  0  0  0  0  0  0  0  0  0
    5.2230   22.6990    8.2990 H   0  0  0  0  0  0  0  0  0  0  0  0
    4.3490   22.3000    6.7340 H   0  0  0  0  0  0  0  0  0  0  0  0
  1 14  2  0  0  0  0
  1 21  1  0  0  0  0
  1 22  1  0  0  0  0
  2 18  2  0  0  0  0
  2 19  1  0  0  0  0
  2 25  1  0  0  0  0
  3  4  1  0  0  0  0
  3 16  1  0  0  0  0
  3 26  1  0  0  0  0
  3 27  1  0  0  0  0
  4  5  1  0  0  0  0
  4  9  1  0  0  0  0
  4 28  1  0  0  0  0
  5  6  1  0  0  0  0
  5 29  1  0  0  0  0
  5 30  1  0  0  0  0
  6  7  1  0  0  0  0
  6 31  1  0  0  0  0
  6 32  1  0  0  0  0
  7  8  1  0  0  0  0
  7 33  1  0  0  0  0
  7 34  1  0  0  0  0
  8  9  1  0  0  0  0
  8 35  1  0  0  0  0
  8 36  1  0  0  0  0
  9 37  1  0  0  0  0
  9 38  1  0  0  0  0
 10 11  2  0  0  0  0
 10 24  1  0  0  0  0
 10 39  1  0  0  0  0
 11 12  1  0  0  0  0
 11 45  1  0  0  0  0
 12 13  2  0  0  0  0
 12 40  1  0  0  0  0
 13 23  1  0  0  0  0
 13 41  1  0  0  0  0
 14 15  1  0  0  0  0
 15 16  1  0  0  0  0
 15 17  2  0  0  0  0
 17 18  1  0  0  0  0
 17 20  1  0  0  0  0
 19 20  1  0  0  0  0
 19 42  1  0  0  0  0
 20 21  2  0  0  0  0
 22 23  1  0  0  0  0
 22 43  1  0  0  0  0
 23 24  2  0  0  0  0
 24 44  1  0  0  0  0
 45 46  1  0  0  0  0
 46 47  1  0  0  0  0
 46 48  1  0  0  0  0
 46 49  1  0  0  0  0
M  END
$$$$
