18652-1
 OpenBabel02232411163D
Structure written by MMmdl.
 55 56  0  0  0  0  0  0  0  0999 V2000
   23.2310   10.4910   28.9600 C   0  0  0  0  0  0  0  0  0  0  0  0
   23.5730   10.9660   30.3610 C   0  0  0  0  0  0  0  0  0  0  0  0
   24.0750   12.4040   30.4040 C   0  0  0  0  0  0  0  0  0  0  0  0
   22.3200   11.0700   31.1810 O   0  0  0  0  0  0  0  0  0  0  0  0
   21.6850    9.9550   31.5870 C   0  0  0  0  0  0  0  0  0  0  0  0
   22.1640    8.7380   31.2230 N   0  0  0  0  0  0  0  0  0  0  0  0
   21.4180    7.6270   31.5740 C   0  0  0  0  0  0  0  0  0  0  0  0
   20.2520    7.7100   32.3280 C   0  0  0  0  0  0  0  0  0  0  0  0
   19.7700    8.9830   32.7340 C   0  0  0  0  0  0  0  0  0  0  0  0
   18.6040    9.0650   33.4540 N   0  0  0  0  0  0  0  0  0  0  0  0
   20.5020   10.1560   32.3620 C   0  0  0  0  0  0  0  0  0  0  0  0
   20.1040   11.4710   32.6840 C   0  0  0  0  0  0  0  0  0  0  0  0
   19.8210   12.5720   32.9150 N   0  0  0  0  0  0  0  0  0  0  0  0
   21.9610    6.4250   31.0490 N   0  0  0  0  0  0  0  0  0  0  0  0
   21.2570    5.2070   30.9390 C   0  0  0  0  0  0  0  0  0  0  0  0
   20.1740    5.0260   31.4540 O   0  0  0  0  0  0  0  0  0  0  0  0
   21.9230    4.1740   30.0460 C   0  0  0  0  0  0  0  0  0  0  0  0
   23.2870    3.7160   30.4690 C   0  0  0  0  0  0  0  0  0  0  0  0
   24.4460    4.3830   29.9700 C   0  0  0  0  0  0  0  0  0  0  0  0
   24.1370    5.5180   29.2250 O   0  0  0  0  0  0  0  0  0  0  0  0
   25.1980    6.4960   29.0550 C   0  0  0  0  0  0  0  0  0  0  0  0
   25.7190    3.8700   30.1730 C   0  0  0  0  0  0  0  0  0  0  0  0
   25.9030    2.7040   30.9430 C   0  0  0  0  0  0  0  0  0  0  0  0
   27.5300    2.0670   31.0610 S   0  0  0  0  0  0  0  0  0  0  0  0
   27.4830    0.8200   31.8650 O   0  0  0  0  0  0  0  0  0  0  0  0
   28.4230    3.0670   31.6950 O   0  0  0  0  0  0  0  0  0  0  0  0
   28.0080    1.7300   29.4270 C   0  0  0  0  0  0  0  0  0  0  0  0
   24.7780    2.1110   31.5330 C   0  0  0  0  0  0  0  0  0  0  0  0
   23.4670    2.5970   31.2620 C   0  0  0  0  0  0  0  0  0  0  0  0
   25.0390    1.0650   32.3730 O   0  0  0  0  0  0  0  0  0  0  0  0
   23.9090    0.3460   32.9490 C   0  0  0  0  0  0  0  0  0  0  0  0
   22.8700    9.4360   28.9670 H   0  0  0  0  0  0  0  0  0  0  0  0
   22.4540   11.1340   28.4910 H   0  0  0  0  0  0  0  0  0  0  0  0
   24.1470   10.5370   28.3230 H   0  0  0  0  0  0  0  0  0  0  0  0
   24.2570   10.2620   30.8890 H   0  0  0  0  0  0  0  0  0  0  0  0
   24.2750   12.7310   31.4470 H   0  0  0  0  0  0  0  0  0  0  0  0
   25.0260   12.4680   29.8190 H   0  0  0  0  0  0  0  0  0  0  0  0
   23.3390   13.1020   29.9410 H   0  0  0  0  0  0  0  0  0  0  0  0
   19.6860    6.8150   32.5940 H   0  0  0  0  0  0  0  0  0  0  0  0
   18.0850    8.2090   33.7290 H   0  0  0  0  0  0  0  0  0  0  0  0
   18.2070    9.9640   33.7270 H   0  0  0  0  0  0  0  0  0  0  0  0
   22.8760    6.5130   30.5500 H   0  0  0  0  0  0  0  0  0  0  0  0
   21.2490    3.2800   29.9790 H   0  0  0  0  0  0  0  0  0  0  0  0
   22.0030    4.6340   29.0180 H   0  0  0  0  0  0  0  0  0  0  0  0
   25.9140    6.1270   28.2900 H   0  0  0  0  0  0  0  0  0  0  0  0
   24.6320    7.3850   28.6940 H   0  0  0  0  0  0  0  0  0  0  0  0
   25.6980    6.7040   30.0260 H   0  0  0  0  0  0  0  0  0  0  0  0
   26.5810    4.3700   29.7180 H   0  0  0  0  0  0  0  0  0  0  0  0
   28.0670    2.6550   28.7950 H   0  0  0  0  0  0  0  0  0  0  0  0
   29.0150    1.2430   29.3650 H   0  0  0  0  0  0  0  0  0  0  0  0
   27.2870    1.0480   28.9070 H   0  0  0  0  0  0  0  0  0  0  0  0
   22.5960    2.0730   31.6570 H   0  0  0  0  0  0  0  0  0  0  0  0
   23.3190    1.0160   33.6100 H   0  0  0  0  0  0  0  0  0  0  0  0
   23.2920   -0.1080   32.1450 H   0  0  0  0  0  0  0  0  0  0  0  0
   24.4260   -0.4450   33.5440 H   0  0  0  0  0  0  0  0  0  0  0  0
  1  2  1  0  0  0  0
  1 32  1  0  0  0  0
  1 33  1  0  0  0  0
  1 34  1  0  0  0  0
  2  3  1  0  0  0  0
  2  4  1  0  0  0  0
  2 35  1  0  0  0  0
  3 36  1  0  0  0  0
  3 37  1  0  0  0  0
  3 38  1  0  0  0  0
  4  5  1  0  0  0  0
  5 11  2  0  0  0  0
  5  6  1  0  0  0  0
  6  7  2  0  0  0  0
  7  8  1  0  0  0  0
  7 14  1  0  0  0  0
  8  9  2  0  0  0  0
  8 39  1  0  0  0  0
  9 10  1  0  0  0  0
  9 11  1  0  0  0  0
 10 40  1  0  0  0  0
 10 41  1  0  0  0  0
 11 12  1  0  0  0  0
 12 13  3  0  0  0  0
 14 15  1  0  0  0  0
 14 42  1  0  0  0  0
 15 16  2  0  0  0  0
 15 17  1  0  0  0  0
 17 18  1  0  0  0  0
 17 43  1  0  0  0  0
 17 44  1  0  0  0  0
 18 29  2  0  0  0  0
 18 19  1  0  0  0  0
 19 20  1  0  0  0  0
 19 22  2  0  0  0  0
 20 21  1  0  0  0  0
 21 45  1  0  0  0  0
 21 46  1  0  0  0  0
 21 47  1  0  0  0  0
 22 23  1  0  0  0  0
 22 48  1  0  0  0  0
 23 24  1  0  0  0  0
 23 28  2  0  0  0  0
 24 25  2  0  0  0  0
 24 26  2  0  0  0  0
 24 27  1  0  0  0  0
 27 49  1  0  0  0  0
 27 50  1  0  0  0  0
 27 51  1  0  0  0  0
 28 29  1  0  0  0  0
 28 30  1  0  0  0  0
 29 52  1  0  0  0  0
 30 31  1  0  0  0  0
 31 53  1  0  0  0  0
 31 54  1  0  0  0  0
 31 55  1  0  0  0  0
M  END
$$$$
