2e
                    3D
 Schrodinger Suite 2022-3.
 46 49  0  0  1  0  0  0  0  0999 V2000
   27.1370    8.9660   30.4450 C   0  0  0  0  0  0  0  0  0  0  0  0
   28.4990    9.5480   30.8430 C   0  0  0  0  0  0  0  0  0  0  0  0
   28.5560    8.2470   32.8820 C   0  0  0  0  0  0  0  0  0  0  0  0
   27.2120    7.5820   32.5600 C   0  0  0  0  0  0  0  0  0  0  0  0
   15.9150   10.5500   31.6710 C   0  0  0  0  0  0  0  0  0  0  0  0
   29.2530    8.6420   31.6800 O   0  0  0  0  0  0  0  0  0  0  0  0
   21.3080   12.5710   31.3070 C   0  0  0  0  0  0  0  0  0  0  0  0
   17.2100   11.0400   31.8440 C   0  0  0  0  0  0  0  0  0  0  0  0
   23.9240    8.5110   31.0600 C   0  0  0  0  0  0  0  0  0  0  0  0
   26.3560    8.5450   31.7100 C   0  0  0  0  0  0  0  0  0  0  0  0
   21.4780    9.7440   30.7760 C   0  0  0  0  0  0  0  0  0  0  0  0
   20.1980   10.3940   30.7320 C   0  0  0  0  0  0  0  0  0  0  0  0
   15.2370   10.8620   30.4870 C   0  0  0  0  0  0  0  0  0  0  0  0
   15.7930   11.6480   29.4730 C   0  0  0  0  0  0  0  0  0  0  0  0
   17.0810   12.1550   29.6550 C   0  0  0  0  0  0  0  0  0  0  0  0
   22.6340   10.4720   31.1840 C   0  0  0  0  0  0  0  0  0  0  0  0
   21.6680    8.3780   30.4360 C   0  0  0  0  0  0  0  0  0  0  0  0
   20.1250   11.7160   31.0130 C   0  0  0  0  0  0  0  0  0  0  0  0
   17.7590   11.8510   30.8430 C   0  0  0  0  0  0  0  0  0  0  0  0
   23.7730   12.5830   31.8610 C   0  0  0  0  0  0  0  0  0  0  0  0
   14.0140   10.3620   30.3040 F   0  0  0  0  0  0  0  0  0  0  0  0
   18.9880   12.5110   31.0500 O   0  0  0  0  0  0  0  0  0  0  0  0
   22.8470    7.7500   30.5620 N   0  0  0  0  0  0  0  0  0  0  0  0
   21.2990   13.7760   31.4360 O   0  0  0  0  0  0  0  0  0  0  0  0
   22.5440   11.8490   31.4490 N   0  0  0  0  0  0  0  0  0  0  0  0
   23.8570    9.8660   31.3200 N   0  0  0  0  0  0  0  0  0  0  0  0
   25.0900    7.8380   31.3490 N   0  0  0  0  0  0  0  0  0  0  0  0
   15.2500   11.8510   28.5500 H   0  0  0  0  0  0  0  0  0  0  0  0
   17.5520   12.7620   28.8770 H   0  0  0  0  0  0  0  0  0  0  0  0
   15.4650    9.9110   32.4300 H   0  0  0  0  0  0  0  0  0  0  0  0
   19.3250    9.7930   30.4750 H   0  0  0  0  0  0  0  0  0  0  0  0
   20.8240    7.7880   30.0440 H   0  0  0  0  0  0  0  0  0  0  0  0
   27.2780    8.0770   29.7880 H   0  0  0  0  0  0  0  0  0  0  0  0
   26.5640    9.7390   29.8810 H   0  0  0  0  0  0  0  0  0  0  0  0
   28.3770   10.5160   31.3800 H   0  0  0  0  0  0  0  0  0  0  0  0
   29.1700    9.6550   29.9610 H   0  0  0  0  0  0  0  0  0  0  0  0
   29.2650    7.5200   33.3410 H   0  0  0  0  0  0  0  0  0  0  0  0
   28.4120    9.1420   33.5290 H   0  0  0  0  0  0  0  0  0  0  0  0
   26.6800    7.3330   33.5100 H   0  0  0  0  0  0  0  0  0  0  0  0
   27.3870    6.6300   32.0000 H   0  0  0  0  0  0  0  0  0  0  0  0
   26.1010    9.4560   32.3190 H   0  0  0  0  0  0  0  0  0  0  0  0
   23.5200   13.6390   32.1390 H   0  0  0  0  0  0  0  0  0  0  0  0
   24.2450   12.0720   32.7430 H   0  0  0  0  0  0  0  0  0  0  0  0
   24.5170   12.5900   31.0190 H   0  0  0  0  0  0  0  0  0  0  0  0
   25.2090    6.8650   31.0020 H   0  0  0  0  0  0  0  0  0  0  0  0
   17.7820   10.7680   32.7330 H   0  0  0  0  0  0  0  0  0  0  0  0
  1  2  1  0  0  0  0
  1 10  1  0  0  0  0
  1 33  1  0  0  0  0
  1 34  1  0  0  0  0
  2  6  1  0  0  0  0
  2 35  1  0  0  0  0
  2 36  1  0  0  0  0
  3  4  1  0  0  0  0
  3  6  1  0  0  0  0
  3 37  1  0  0  0  0
  3 38  1  0  0  0  0
  4 10  1  0  0  0  0
  4 39  1  0  0  0  0
  4 40  1  0  0  0  0
  5  8  1  0  0  0  0
  5 13  2  0  0  0  0
  5 30  1  0  0  0  0
  7 18  1  0  0  0  0
  7 24  2  0  0  0  0
  7 25  1  0  0  0  0
  8 19  2  0  0  0  0
  8 46  1  0  0  0  0
  9 23  1  0  0  0  0
  9 26  2  0  0  0  0
  9 27  1  0  0  0  0
 10 27  1  0  0  0  0
 10 41  1  0  0  0  0
 11 12  1  0  0  0  0
 11 16  2  0  0  0  0
 11 17  1  0  0  0  0
 12 18  2  0  0  0  0
 12 31  1  0  0  0  0
 13 14  1  0  0  0  0
 13 21  1  0  0  0  0
 14 15  2  0  0  0  0
 14 28  1  0  0  0  0
 15 19  1  0  0  0  0
 15 29  1  0  0  0  0
 16 25  1  0  0  0  0
 16 26  1  0  0  0  0
 17 23  2  0  0  0  0
 17 32  1  0  0  0  0
 18 22  1  0  0  0  0
 19 22  1  0  0  0  0
 20 25  1  0  0  0  0
 20 42  1  0  0  0  0
 20 43  1  0  0  0  0
 20 44  1  0  0  0  0
 27 45  1  0  0  0  0
M  END
$$$$
