18660-1
 OpenBabel02232411163D
Structure written by MMmdl.
 52 53  0  0  0  0  0  0  0  0999 V2000
   23.7600   14.1240   28.1450 C   0  0  0  0  0  0  0  0  0  0  0  0
   22.4570   13.3420   28.9880 S   0  0  0  0  0  0  0  0  0  0  0  0
   22.2950   13.9790   30.3030 O   0  0  0  0  0  0  0  0  0  0  0  0
   21.2130   13.4150   28.2060 O   0  0  0  0  0  0  0  0  0  0  0  0
   22.9750   11.6660   29.1460 C   0  0  0  0  0  0  0  0  0  0  0  0
   23.3390   11.1840   30.5390 C   0  0  0  0  0  0  0  0  0  0  0  0
   22.1470   11.2140   31.3960 O   0  0  0  0  0  0  0  0  0  0  0  0
   21.4990   10.0590   31.6900 C   0  0  0  0  0  0  0  0  0  0  0  0
   21.9280    8.8920   31.1630 N   0  0  0  0  0  0  0  0  0  0  0  0
   21.1980    7.7500   31.4630 C   0  0  0  0  0  0  0  0  0  0  0  0
   20.0620    7.7760   32.2650 C   0  0  0  0  0  0  0  0  0  0  0  0
   19.6160    9.0130   32.8030 C   0  0  0  0  0  0  0  0  0  0  0  0
   18.4670    9.0480   33.5500 N   0  0  0  0  0  0  0  0  0  0  0  0
   20.3600   10.2060   32.5320 C   0  0  0  0  0  0  0  0  0  0  0  0
   20.0170   11.4900   33.0110 C   0  0  0  0  0  0  0  0  0  0  0  0
   19.7800   12.5710   33.3550 N   0  0  0  0  0  0  0  0  0  0  0  0
   21.7470    6.6080   30.8450 N   0  0  0  0  0  0  0  0  0  0  0  0
   21.1990    5.3040   30.8110 C   0  0  0  0  0  0  0  0  0  0  0  0
   20.1500    5.0170   31.3460 O   0  0  0  0  0  0  0  0  0  0  0  0
   22.0290    4.3350   29.9800 C   0  0  0  0  0  0  0  0  0  0  0  0
   23.3800    4.0780   30.5810 C   0  0  0  0  0  0  0  0  0  0  0  0
   24.4750    4.9450   30.2950 C   0  0  0  0  0  0  0  0  0  0  0  0
   24.1360    5.9810   29.4270 O   0  0  0  0  0  0  0  0  0  0  0  0
   25.0790    7.0800   29.3090 C   0  0  0  0  0  0  0  0  0  0  0  0
   25.7390    4.7280   30.8300 C   0  0  0  0  0  0  0  0  0  0  0  0
   25.9500    3.6430   31.6940 C   0  0  0  0  0  0  0  0  0  0  0  0
   24.8820    2.7950   31.9850 C   0  0  0  0  0  0  0  0  0  0  0  0
   23.5990    2.9930   31.4180 C   0  0  0  0  0  0  0  0  0  0  0  0
   24.9190    1.6990   32.8220 O   0  0  0  0  0  0  0  0  0  0  0  0
   26.1760    1.4040   33.4840 C   0  0  0  0  0  0  0  0  0  0  0  0
   23.9530   13.6720   27.1370 H   0  0  0  0  0  0  0  0  0  0  0  0
   24.7400   14.0450   28.6910 H   0  0  0  0  0  0  0  0  0  0  0  0
   23.5800   15.2160   27.9660 H   0  0  0  0  0  0  0  0  0  0  0  0
   22.2200   10.9610   28.6900 H   0  0  0  0  0  0  0  0  0  0  0  0
   23.8970   11.4920   28.5000 H   0  0  0  0  0  0  0  0  0  0  0  0
   23.7890   10.1590   30.4910 H   0  0  0  0  0  0  0  0  0  0  0  0
   24.0260   11.8870   31.0700 H   0  0  0  0  0  0  0  0  0  0  0  0
   19.4980    6.8640   32.4700 H   0  0  0  0  0  0  0  0  0  0  0  0
   18.1010    9.9250   33.9200 H   0  0  0  0  0  0  0  0  0  0  0  0
   17.9740    8.1730   33.8130 H   0  0  0  0  0  0  0  0  0  0  0  0
   22.6500    6.7770   30.3310 H   0  0  0  0  0  0  0  0  0  0  0  0
   21.4670    3.3710   29.8790 H   0  0  0  0  0  0  0  0  0  0  0  0
   22.1640    4.7800   28.9550 H   0  0  0  0  0  0  0  0  0  0  0  0
   25.9670    6.7410   28.7330 H   0  0  0  0  0  0  0  0  0  0  0  0
   24.4870    7.8330   28.7400 H   0  0  0  0  0  0  0  0  0  0  0  0
   25.3590    7.4720   30.3110 H   0  0  0  0  0  0  0  0  0  0  0  0
   26.5830    5.3810   30.5930 H   0  0  0  0  0  0  0  0  0  0  0  0
   26.9480    3.4950   32.1090 H   0  0  0  0  0  0  0  0  0  0  0  0
   22.8030    2.2800   31.6510 H   0  0  0  0  0  0  0  0  0  0  0  0
   25.9090    0.5050   34.0890 H   0  0  0  0  0  0  0  0  0  0  0  0
   26.4780    2.2520   34.1350 H   0  0  0  0  0  0  0  0  0  0  0  0
   26.9590    1.1620   32.7330 H   0  0  0  0  0  0  0  0  0  0  0  0
  1  2  1  0  0  0  0
  1 31  1  0  0  0  0
  1 32  1  0  0  0  0
  1 33  1  0  0  0  0
  2  3  2  0  0  0  0
  2  4  2  0  0  0  0
  2  5  1  0  0  0  0
  5  6  1  0  0  0  0
  5 34  1  0  0  0  0
  5 35  1  0  0  0  0
  6  7  1  0  0  0  0
  6 36  1  0  0  0  0
  6 37  1  0  0  0  0
  7  8  1  0  0  0  0
  8 14  2  0  0  0  0
  8  9  1  0  0  0  0
  9 10  2  0  0  0  0
 10 11  1  0  0  0  0
 10 17  1  0  0  0  0
 11 12  2  0  0  0  0
 11 38  1  0  0  0  0
 12 13  1  0  0  0  0
 12 14  1  0  0  0  0
 13 39  1  0  0  0  0
 13 40  1  0  0  0  0
 14 15  1  0  0  0  0
 15 16  3  0  0  0  0
 17 18  1  0  0  0  0
 17 41  1  0  0  0  0
 18 19  2  0  0  0  0
 18 20  1  0  0  0  0
 20 21  1  0  0  0  0
 20 42  1  0  0  0  0
 20 43  1  0  0  0  0
 21 28  2  0  0  0  0
 21 22  1  0  0  0  0
 22 23  1  0  0  0  0
 22 25  2  0  0  0  0
 23 24  1  0  0  0  0
 24 44  1  0  0  0  0
 24 45  1  0  0  0  0
 24 46  1  0  0  0  0
 25 26  1  0  0  0  0
 25 47  1  0  0  0  0
 26 27  2  0  0  0  0
 26 48  1  0  0  0  0
 27 28  1  0  0  0  0
 27 29  1  0  0  0  0
 28 49  1  0  0  0  0
 29 30  1  0  0  0  0
 30 50  1  0  0  0  0
 30 51  1  0  0  0  0
 30 52  1  0  0  0  0
M  END
$$$$
