18639-1
 OpenBabel02232411163D
Structure written by MMmdl.
 48 49  0  0  0  0  0  0  0  0999 V2000
   23.8230   12.6750   30.3330 C   0  0  0  0  0  0  0  0  0  0  0  0
   23.3750   11.2300   30.4420 C   0  0  0  0  0  0  0  0  0  0  0  0
   22.1280   11.3240   31.2450 O   0  0  0  0  0  0  0  0  0  0  0  0
   21.5020   10.1810   31.5940 C   0  0  0  0  0  0  0  0  0  0  0  0
   21.9950    8.9940   31.1650 N   0  0  0  0  0  0  0  0  0  0  0  0
   21.2730    7.8530   31.4830 C   0  0  0  0  0  0  0  0  0  0  0  0
   20.1130    7.8860   32.2490 C   0  0  0  0  0  0  0  0  0  0  0  0
   19.6150    9.1330   32.7120 C   0  0  0  0  0  0  0  0  0  0  0  0
   18.4700    9.1670   33.4670 N   0  0  0  0  0  0  0  0  0  0  0  0
   20.3140   10.3340   32.3680 C   0  0  0  0  0  0  0  0  0  0  0  0
   19.8800   11.6330   32.7090 C   0  0  0  0  0  0  0  0  0  0  0  0
   19.5720   12.7260   32.9450 N   0  0  0  0  0  0  0  0  0  0  0  0
   21.8530    6.6870   30.9280 N   0  0  0  0  0  0  0  0  0  0  0  0
   21.2590    5.4090   30.8600 C   0  0  0  0  0  0  0  0  0  0  0  0
   20.1730    5.1610   31.3380 O   0  0  0  0  0  0  0  0  0  0  0  0
   22.0730    4.3990   30.0590 C   0  0  0  0  0  0  0  0  0  0  0  0
   23.4310    4.1040   30.6230 C   0  0  0  0  0  0  0  0  0  0  0  0
   24.5430    4.9480   30.3090 C   0  0  0  0  0  0  0  0  0  0  0  0
   24.2020    6.0000   29.4690 O   0  0  0  0  0  0  0  0  0  0  0  0
   25.1830    7.0590   29.2830 C   0  0  0  0  0  0  0  0  0  0  0  0
   25.8170    4.6850   30.7860 C   0  0  0  0  0  0  0  0  0  0  0  0
   26.0280    3.5630   31.6150 C   0  0  0  0  0  0  0  0  0  0  0  0
   27.3760    3.2820   32.1170 N   0  3  0  0  0  0  0  0  0  0  0  0
   27.4980    2.4720   33.0220 O   0  5  0  0  0  0  0  0  0  0  0  0
   28.3240    3.8660   31.6040 O   0  0  0  0  0  0  0  0  0  0  0  0
   24.9410    2.7140   31.9310 C   0  0  0  0  0  0  0  0  0  0  0  0
   23.6510    2.9920   31.4200 C   0  0  0  0  0  0  0  0  0  0  0  0
   25.2700    1.6670   32.7370 O   0  0  0  0  0  0  0  0  0  0  0  0
   24.2590    0.6410   32.9650 C   0  0  0  0  0  0  0  0  0  0  0  0
   24.7530   12.7130   29.7120 H   0  0  0  0  0  0  0  0  0  0  0  0
   23.0460   13.2980   29.8320 H   0  0  0  0  0  0  0  0  0  0  0  0
   24.0430   13.1090   31.3340 H   0  0  0  0  0  0  0  0  0  0  0  0
   23.1060   10.7900   29.4560 H   0  0  0  0  0  0  0  0  0  0  0  0
   24.1010   10.5950   30.9990 H   0  0  0  0  0  0  0  0  0  0  0  0
   19.5660    6.9690   32.4850 H   0  0  0  0  0  0  0  0  0  0  0  0
   17.9660    8.2920   33.7100 H   0  0  0  0  0  0  0  0  0  0  0  0
   18.0560   10.0500   33.7650 H   0  0  0  0  0  0  0  0  0  0  0  0
   22.7740    6.8290   30.4430 H   0  0  0  0  0  0  0  0  0  0  0  0
   21.4830    3.4450   29.9940 H   0  0  0  0  0  0  0  0  0  0  0  0
   22.1960    4.8090   29.0160 H   0  0  0  0  0  0  0  0  0  0  0  0
   25.5180    7.4570   30.2640 H   0  0  0  0  0  0  0  0  0  0  0  0
   26.0230    6.6730   28.6680 H   0  0  0  0  0  0  0  0  0  0  0  0
   24.5820    7.8150   28.7270 H   0  0  0  0  0  0  0  0  0  0  0  0
   26.6680    5.3240   30.5220 H   0  0  0  0  0  0  0  0  0  0  0  0
   22.8230    2.3170   31.6520 H   0  0  0  0  0  0  0  0  0  0  0  0
   24.8320   -0.1020   33.5700 H   0  0  0  0  0  0  0  0  0  0  0  0
   23.4110    1.0610   33.5460 H   0  0  0  0  0  0  0  0  0  0  0  0
   23.9360    0.2030   31.9950 H   0  0  0  0  0  0  0  0  0  0  0  0
  1  2  1  0  0  0  0
  1 30  1  0  0  0  0
  1 31  1  0  0  0  0
  1 32  1  0  0  0  0
  2  3  1  0  0  0  0
  2 33  1  0  0  0  0
  2 34  1  0  0  0  0
  3  4  1  0  0  0  0
  4 10  2  0  0  0  0
  4  5  1  0  0  0  0
  5  6  2  0  0  0  0
  6  7  1  0  0  0  0
  6 13  1  0  0  0  0
  7  8  2  0  0  0  0
  7 35  1  0  0  0  0
  8  9  1  0  0  0  0
  8 10  1  0  0  0  0
  9 36  1  0  0  0  0
  9 37  1  0  0  0  0
 10 11  1  0  0  0  0
 11 12  3  0  0  0  0
 13 14  1  0  0  0  0
 13 38  1  0  0  0  0
 14 15  2  0  0  0  0
 14 16  1  0  0  0  0
 16 17  1  0  0  0  0
 16 39  1  0  0  0  0
 16 40  1  0  0  0  0
 17 27  2  0  0  0  0
 17 18  1  0  0  0  0
 18 19  1  0  0  0  0
 18 21  2  0  0  0  0
 19 20  1  0  0  0  0
 20 41  1  0  0  0  0
 20 42  1  0  0  0  0
 20 43  1  0  0  0  0
 21 22  1  0  0  0  0
 21 44  1  0  0  0  0
 22 23  1  0  0  0  0
 22 26  2  0  0  0  0
 23 24  1  0  0  0  0
 23 25  2  0  0  0  0
 26 27  1  0  0  0  0
 26 28  1  0  0  0  0
 27 45  1  0  0  0  0
 28 29  1  0  0  0  0
 29 46  1  0  0  0  0
 29 47  1  0  0  0  0
 29 48  1  0  0  0  0
M  CHG  2  23   1  24  -1
M  END
$$$$
