3a
 OpenBabel02232411173D

 55 57  0  0  1  0  0  0  0  0999 V2000
   18.1960  -13.0820   21.5120 N   0  0  0  0  0  0  0  0  0  0  0  0
   17.9390  -11.7400   20.9030 C   0  0  2  0  0  0  0  0  0  0  0  0
   17.3070  -13.6490   22.3860 C   0  0  0  0  0  0  0  0  0  0  0  0
   16.2740  -13.0660   22.7090 O   0  0  0  0  0  0  0  0  0  0  0  0
   16.5170  -11.6600   20.2820 C   0  0  0  0  0  0  0  0  0  0  0  0
   16.0270  -12.5500   19.6040 O   0  0  0  0  0  0  0  0  0  0  0  0
   19.0240  -11.5690   19.8210 C   0  0  0  0  0  0  0  0  0  0  0  0
   17.6430  -15.0540   22.9630 C   0  0  2  0  0  0  0  0  0  0  0  0
   15.8930  -10.4420   20.4860 N   0  0  0  0  0  0  0  0  0  0  0  0
   20.1020  -12.6340   20.0900 C   0  0  0  0  0  0  0  0  0  0  0  0
   16.3540  -15.8960   22.9410 N   0  3  0  0  0  0  0  0  0  0  0  0
   18.1400  -14.9700   24.4200 C   0  0  0  0  0  0  0  0  0  0  0  0
   14.5030  -10.1510   20.0570 C   0  0  0  0  0  0  0  0  0  0  0  0
   19.4600  -13.6970   21.0000 C   0  0  0  0  0  0  0  0  0  0  0  0
   19.5840  -14.5430   24.5290 C   0  0  0  0  0  0  0  0  0  0  0  0
   13.4600  -10.6820   21.0120 C   0  0  0  0  0  0  0  0  0  0  0  0
   19.9180  -13.3680   25.2100 C   0  0  0  0  0  0  0  0  0  0  0  0
   12.8750  -11.9330   20.7870 C   0  0  0  0  0  0  0  0  0  0  0  0
   21.2550  -12.9790   25.3400 C   0  0  0  0  0  0  0  0  0  0  0  0
   11.8790  -12.3940   21.6530 C   0  0  0  0  0  0  0  0  0  0  0  0
   22.2720  -13.7840   24.8220 C   0  0  0  0  0  0  0  0  0  0  0  0
   11.4460  -11.6000   22.7150 C   0  0  0  0  0  0  0  0  0  0  0  0
   21.9430  -14.9760   24.1630 C   0  0  0  0  0  0  0  0  0  0  0  0
   12.0400  -10.3490   22.9550 C   0  0  0  0  0  0  0  0  0  0  0  0
   20.6070  -15.3520   24.0090 C   0  0  0  0  0  0  0  0  0  0  0  0
   13.0580   -9.8980   22.1020 C   0  0  0  0  0  0  0  0  0  0  0  0
   18.0730  -10.9620   21.7050 H   0  0  0  0  0  0  0  0  0  0  0  0
   18.6000  -11.7120   18.8000 H   0  0  0  0  0  0  0  0  0  0  0  0
   19.4560  -10.5520   19.9040 H   0  0  0  0  0  0  0  0  0  0  0  0
   18.3930  -15.6180   22.3370 H   0  0  0  0  0  0  0  0  0  0  0  0
   16.3270   -9.7440   21.1170 H   0  0  0  0  0  0  0  0  0  0  0  0
   20.4430  -13.1050   19.1370 H   0  0  0  0  0  0  0  0  0  0  0  0
   20.9840  -12.1800   20.5960 H   0  0  0  0  0  0  0  0  0  0  0  0
   16.5640  -16.8650   23.3260 H   0  0  0  0  0  0  0  0  0  0  0  0
   15.6060  -15.4270   23.5470 H   0  0  0  0  0  0  0  0  0  0  0  0
   16.0000  -16.0110   21.9520 H   0  0  0  0  0  0  0  0  0  0  0  0
   17.4790  -14.2790   25.0030 H   0  0  0  0  0  0  0  0  0  0  0  0
   18.0650  -15.9930   24.8890 H   0  0  0  0  0  0  0  0  0  0  0  0
   14.4280   -9.0290   19.9890 H   0  0  0  0  0  0  0  0  0  0  0  0
   14.3480  -10.5800   19.0280 H   0  0  0  0  0  0  0  0  0  0  0  0
   20.1340  -13.9480   21.8590 H   0  0  0  0  0  0  0  0  0  0  0  0
   19.2250  -14.6240   20.4180 H   0  0  0  0  0  0  0  0  0  0  0  0
   19.1360  -12.7630   25.6610 H   0  0  0  0  0  0  0  0  0  0  0  0
   13.1830  -12.5540   19.9430 H   0  0  0  0  0  0  0  0  0  0  0  0
   21.4780  -12.0420   25.8530 H   0  0  0  0  0  0  0  0  0  0  0  0
   11.4370  -13.3820   21.5010 H   0  0  0  0  0  0  0  0  0  0  0  0
   23.3210  -13.4980   24.9350 H   0  0  0  0  0  0  0  0  0  0  0  0
   22.7270  -15.6290   23.7670 H   0  0  0  0  0  0  0  0  0  0  0  0
   20.3590  -16.2830   23.4940 H   0  0  0  0  0  0  0  0  0  0  0  0
   13.5360   -8.9370   22.2850 H   0  0  0  0  0  0  0  0  0  0  0  0
   10.6410  -11.9590   23.3610 H   0  0  0  0  0  0  0  0  0  0  0  0
   11.6050   -9.5340   24.1300 C   0  0  0  0  0  0  0  0  0  0  0  0
   11.9420   -8.4780   24.0580 H   0  0  0  0  0  0  0  0  0  0  0  0
   10.4910   -9.5560   24.2350 H   0  0  0  0  0  0  0  0  0  0  0  0
   12.0390   -9.9780   25.0550 H   0  0  0  0  0  0  0  0  0  0  0  0
  1  2  1  0  0  0  0
  1 14  1  0  0  0  0
  1  3  1  0  0  0  0
  2  5  1  0  0  0  0
  2  7  1  0  0  0  0
  2 27  1  1  0  0  0
  3  8  1  0  0  0  0
  3  4  2  0  0  0  0
  5  6  2  0  0  0  0
  5  9  1  0  0  0  0
  7 10  1  0  0  0  0
  7 28  1  0  0  0  0
  7 29  1  0  0  0  0
  8 11  1  0  0  0  0
  8 12  1  0  0  0  0
  8 30  1  6  0  0  0
  9 13  1  0  0  0  0
  9 31  1  0  0  0  0
 10 14  1  0  0  0  0
 10 32  1  0  0  0  0
 10 33  1  0  0  0  0
 11 34  1  0  0  0  0
 11 35  1  0  0  0  0
 11 36  1  0  0  0  0
 12 15  1  0  0  0  0
 12 37  1  0  0  0  0
 12 38  1  0  0  0  0
 13 16  1  0  0  0  0
 13 39  1  0  0  0  0
 13 40  1  0  0  0  0
 14 41  1  0  0  0  0
 14 42  1  0  0  0  0
 15 17  2  0  0  0  0
 15 25  1  0  0  0  0
 16 18  2  0  0  0  0
 16 26  1  0  0  0  0
 17 19  1  0  0  0  0
 17 43  1  0  0  0  0
 18 20  1  0  0  0  0
 18 44  1  0  0  0  0
 19 21  2  0  0  0  0
 19 45  1  0  0  0  0
 20 22  2  0  0  0  0
 20 46  1  0  0  0  0
 21 23  1  0  0  0  0
 21 47  1  0  0  0  0
 22 24  1  0  0  0  0
 22 51  1  0  0  0  0
 23 25  2  0  0  0  0
 23 48  1  0  0  0  0
 24 26  2  0  0  0  0
 24 52  1  0  0  0  0
 25 49  1  0  0  0  0
 26 50  1  0  0  0  0
 52 53  1  0  0  0  0
 52 54  1  0  0  0  0
 52 55  1  0  0  0  0
M  CHG  1  11   1
M  END
$$$$
