p38a_2m
 OpenBabel02232411163D
Structure written by MMmdl.
 50 54  0  0  0  0  0  0  0  0999 V2000
   38.3150   36.6040   17.0910 C   0  0  0  0  0  0  0  0  0  0  0  0
   34.4920   35.0350   21.0720 C   0  0  0  0  0  0  0  0  0  0  0  0
   37.5280   36.1330   18.1380 C   0  0  0  0  0  0  0  0  0  0  0  0
   33.8820   39.0070   23.7770 C   0  0  0  0  0  0  0  0  0  0  0  0
   34.6440   37.8980   21.3680 C   0  0  0  0  0  0  0  0  0  0  0  0
   35.0920   37.2950   20.1420 C   0  0  0  0  0  0  0  0  0  0  0  0
   37.6710   36.7820   15.8590 C   0  0  0  0  0  0  0  0  0  0  0  0
   36.3220   36.4920   15.6440 C   0  0  0  0  0  0  0  0  0  0  0  0
   35.5560   36.0030   16.7080 C   0  0  0  0  0  0  0  0  0  0  0  0
   34.1500   37.0850   22.4290 C   0  0  0  0  0  0  0  0  0  0  0  0
   34.6860   39.3010   21.5950 C   0  0  0  0  0  0  0  0  0  0  0  0
   35.0390   35.9500   20.0320 C   0  0  0  0  0  0  0  0  0  0  0  0
   36.1660   35.8140   17.9510 C   0  0  0  0  0  0  0  0  0  0  0  0
   38.0550   35.9800   19.3460 F   0  0  0  0  0  0  0  0  0  0  0  0
   35.4470   35.1610   18.9580 O   0  0  0  0  0  0  0  0  0  0  0  0
   34.3320   39.8700   22.7570 N   0  0  0  0  0  0  0  0  0  0  0  0
   34.4160   33.8340   20.9390 O   0  0  0  0  0  0  0  0  0  0  0  0
   34.0470   35.6830   22.2810 N   0  0  0  0  0  0  0  0  0  0  0  0
   33.7700   37.6370   23.6250 N   0  0  0  0  0  0  0  0  0  0  0  0
   33.5240   39.5600   24.9810 N   0  0  0  0  0  0  0  0  0  0  0  0
   39.3690   36.8590   17.2330 H   0  0  0  0  0  0  0  0  0  0  0  0
   35.4660   37.9460   19.3500 H   0  0  0  0  0  0  0  0  0  0  0  0
   35.8540   36.6540   14.6710 H   0  0  0  0  0  0  0  0  0  0  0  0
   34.4930   35.7860   16.5610 H   0  0  0  0  0  0  0  0  0  0  0  0
   35.0220   39.9740   20.7890 H   0  0  0  0  0  0  0  0  0  0  0  0
   33.6260   40.5800   25.1340 H   0  0  0  0  0  0  0  0  0  0  0  0
   38.3720   37.2910   14.8490 F   0  0  0  0  0  0  0  0  0  0  0  0
   33.1250   40.4000   28.0620 C   0  0  0  0  0  0  0  0  0  0  0  0
   32.2070   39.6620   27.0790 C   0  0  0  0  0  0  0  0  0  0  0  0
   32.9680   38.7380   26.1060 C   0  0  0  0  0  0  0  0  0  0  0  0
   34.0640   37.9360   26.8380 C   0  0  0  0  0  0  0  0  0  0  0  0
   34.9050   38.8100   27.7670 C   0  0  0  0  0  0  0  0  0  0  0  0
   34.0670   39.5210   28.7100 O   0  0  0  0  0  0  0  0  0  0  0  0
   32.5440   40.8060   28.9210 H   0  0  0  0  0  0  0  0  0  0  0  0
   33.6940   41.2040   27.5430 H   0  0  0  0  0  0  0  0  0  0  0  0
   31.6220   40.4170   26.4980 H   0  0  0  0  0  0  0  0  0  0  0  0
   31.4810   39.0280   27.6470 H   0  0  0  0  0  0  0  0  0  0  0  0
   32.2290   38.0080   25.6600 H   0  0  0  0  0  0  0  0  0  0  0  0
   33.5530   37.1330   27.4300 H   0  0  0  0  0  0  0  0  0  0  0  0
   34.7320   37.4260   26.1000 H   0  0  0  0  0  0  0  0  0  0  0  0
   35.5410   38.1940   28.4430 H   0  0  0  0  0  0  0  0  0  0  0  0
   35.5060   39.5500   27.1920 H   0  0  0  0  0  0  0  0  0  0  0  0
   33.4960   34.9020   23.4090 C   0  0  0  0  0  0  0  0  0  0  0  0
   34.0990   33.5650   23.8150 C   0  0  0  0  0  0  0  0  0  0  0  0
   32.7160   33.6130   23.1860 C   0  0  0  0  0  0  0  0  0  0  0  0
   33.1380   35.5580   24.2350 H   0  0  0  0  0  0  0  0  0  0  0  0
   34.9310   33.1290   23.2520 H   0  0  0  0  0  0  0  0  0  0  0  0
   34.1790   33.3550   24.8930 H   0  0  0  0  0  0  0  0  0  0  0  0
   32.5650   33.2080   22.1790 H   0  0  0  0  0  0  0  0  0  0  0  0
   31.8390   33.4470   23.8330 H   0  0  0  0  0  0  0  0  0  0  0  0
  1  3  2  0  0  0  0
  1  7  1  0  0  0  0
  1 21  1  0  0  0  0
  2 12  1  0  0  0  0
  2 17  2  0  0  0  0
  2 18  1  0  0  0  0
  3 13  1  0  0  0  0
  3 14  1  0  0  0  0
  4 16  2  0  0  0  0
  4 19  1  0  0  0  0
  4 20  1  0  0  0  0
  5  6  1  0  0  0  0
  5 10  1  0  0  0  0
  5 11  2  0  0  0  0
  6 12  2  0  0  0  0
  6 22  1  0  0  0  0
  7  8  2  0  0  0  0
  7 27  1  0  0  0  0
  8  9  1  0  0  0  0
  8 23  1  0  0  0  0
  9 13  2  0  0  0  0
  9 24  1  0  0  0  0
 10 18  1  0  0  0  0
 10 19  2  0  0  0  0
 11 16  1  0  0  0  0
 11 25  1  0  0  0  0
 12 15  1  0  0  0  0
 13 15  1  0  0  0  0
 18 43  1  0  0  0  0
 20 26  1  0  0  0  0
 20 30  1  0  0  0  0
 28 29  1  0  0  0  0
 28 33  1  0  0  0  0
 28 34  1  0  0  0  0
 28 35  1  0  0  0  0
 29 30  1  0  0  0  0
 29 36  1  0  0  0  0
 29 37  1  0  0  0  0
 30 31  1  0  0  0  0
 30 38  1  0  0  0  0
 31 32  1  0  0  0  0
 31 39  1  0  0  0  0
 31 40  1  0  0  0  0
 32 33  1  0  0  0  0
 32 41  1  0  0  0  0
 32 42  1  0  0  0  0
 43 44  1  0  0  0  0
 43 45  1  0  0  0  0
 43 46  1  0  0  0  0
 44 45  1  0  0  0  0
 44 47  1  0  0  0  0
 44 48  1  0  0  0  0
 45 49  1  0  0  0  0
 45 50  1  0  0  0  0
M  END
$$$$
