p38a_3flq
 OpenBabel02232411163D
Structure written by MMmdl.
 47 49  0  0  1  0  0  0  0  0999 V2000
   34.6540   39.0980   24.2510 C   0  0  0  0  0  0  0  0  0  0  0  0
   34.7910   37.9210   21.7580 C   0  0  0  0  0  0  0  0  0  0  0  0
   34.9650   37.2840   20.4830 C   0  0  0  0  0  0  0  0  0  0  0  0
   34.7700   37.1370   22.9510 C   0  0  0  0  0  0  0  0  0  0  0  0
   34.9570   35.9310   20.4290 C   0  0  0  0  0  0  0  0  0  0  0  0
   35.2630   39.1330   26.7070 C   0  0  1  0  0  0  0  0  0  0  0  0
   35.4530   40.2620   27.7240 C   0  0  0  0  0  0  0  0  0  0  0  0
   32.4410   36.4320   28.2450 C   0  0  0  0  0  0  0  0  0  0  0  0
   34.7390   35.7370   22.8680 N   0  0  0  0  0  0  0  0  0  0  0  0
   34.5210   37.9200   27.2860 C   0  0  0  0  0  0  0  0  0  0  0  0
   38.3840   36.8390   15.2500 F   0  0  0  0  0  0  0  0  0  0  0  0
   37.6290   36.3750   16.2430 C   0  0  0  0  0  0  0  0  0  0  0  0
   38.1430   36.3990   17.5410 C   0  0  0  0  0  0  0  0  0  0  0  0
   37.3100   36.0340   18.6060 C   0  0  0  0  0  0  0  0  0  0  0  0
   36.3390   35.9220   15.9310 C   0  0  0  0  0  0  0  0  0  0  0  0
   35.5420   35.5360   17.0020 C   0  0  0  0  0  0  0  0  0  0  0  0
   34.3160   35.0700   16.7980 F   0  0  0  0  0  0  0  0  0  0  0  0
   36.0050   35.6140   18.3340 C   0  0  0  0  0  0  0  0  0  0  0  0
   35.0960   35.1420   19.2840 O   0  0  0  0  0  0  0  0  0  0  0  0
   34.6780   35.0560   21.5950 C   0  0  0  0  0  0  0  0  0  0  0  0
   34.4070   33.8780   21.5510 O   0  0  0  0  0  0  0  0  0  0  0  0
   34.6460   39.3290   21.9130 C   0  0  0  0  0  0  0  0  0  0  0  0
   34.5440   39.9230   23.1080 N   0  0  0  0  0  0  0  0  0  0  0  0
   34.7490   37.7220   24.1930 N   0  0  0  0  0  0  0  0  0  0  0  0
   34.7290   34.9330   24.1200 C   0  0  0  0  0  0  0  0  0  0  0  0
   34.6440   39.7230   25.4760 N   0  0  0  0  0  0  0  0  0  0  0  0
   32.8580   38.0700   27.8240 S   0  0  0  0  0  0  0  0  0  0  0  0
   32.7500   38.9270   29.0260 O   0  0  0  0  0  0  0  0  0  0  0  0
   31.9790   38.5450   26.7400 O   0  0  0  0  0  0  0  0  0  0  0  0
   35.1220   37.9140   19.6030 H   0  0  0  0  0  0  0  0  0  0  0  0
   36.2860   38.7490   26.4050 H   0  0  0  0  0  0  0  0  0  0  0  0
   36.1460   41.0410   27.3280 H   0  0  0  0  0  0  0  0  0  0  0  0
   34.4920   40.7590   27.9950 H   0  0  0  0  0  0  0  0  0  0  0  0
   35.9060   39.8480   28.6580 H   0  0  0  0  0  0  0  0  0  0  0  0
   31.4870   36.3620   28.8240 H   0  0  0  0  0  0  0  0  0  0  0  0
   32.3240   35.7720   27.3470 H   0  0  0  0  0  0  0  0  0  0  0  0
   33.2340   35.9470   28.8750 H   0  0  0  0  0  0  0  0  0  0  0  0
   34.5790   37.0840   26.5230 H   0  0  0  0  0  0  0  0  0  0  0  0
   35.1370   37.5520   28.1590 H   0  0  0  0  0  0  0  0  0  0  0  0
   39.1680   36.7330   17.7280 H   0  0  0  0  0  0  0  0  0  0  0  0
   37.6790   36.1040   19.6300 H   0  0  0  0  0  0  0  0  0  0  0  0
   35.9730   35.9040   14.9020 H   0  0  0  0  0  0  0  0  0  0  0  0
   34.6180   39.9770   21.0180 H   0  0  0  0  0  0  0  0  0  0  0  0
   34.8360   33.8420   23.8830 H   0  0  0  0  0  0  0  0  0  0  0  0
   35.5810   35.2420   24.7860 H   0  0  0  0  0  0  0  0  0  0  0  0
   33.7700   35.0920   24.6810 H   0  0  0  0  0  0  0  0  0  0  0  0
   34.3880   40.7320   25.5200 H   0  0  0  0  0  0  0  0  0  0  0  0
  1 23  2  0  0  0  0
  1 24  1  0  0  0  0
  1 26  1  0  0  0  0
  2  3  1  0  0  0  0
  2  4  1  0  0  0  0
  2 22  2  0  0  0  0
  3  5  2  0  0  0  0
  3 30  1  0  0  0  0
  4  9  1  0  0  0  0
  4 24  2  0  0  0  0
  5 19  1  0  0  0  0
  5 20  1  0  0  0  0
  6  7  1  0  0  0  0
  6 10  1  0  0  0  0
  6 26  1  0  0  0  0
  6 31  1  6  0  0  0
  7 32  1  0  0  0  0
  7 33  1  0  0  0  0
  7 34  1  0  0  0  0
  8 27  1  0  0  0  0
  8 35  1  0  0  0  0
  8 36  1  0  0  0  0
  8 37  1  0  0  0  0
  9 20  1  0  0  0  0
  9 25  1  0  0  0  0
 10 27  1  0  0  0  0
 10 38  1  0  0  0  0
 10 39  1  0  0  0  0
 11 12  1  0  0  0  0
 12 13  2  0  0  0  0
 12 15  1  0  0  0  0
 13 14  1  0  0  0  0
 13 40  1  0  0  0  0
 14 18  2  0  0  0  0
 14 41  1  0  0  0  0
 15 16  2  0  0  0  0
 15 42  1  0  0  0  0
 16 17  1  0  0  0  0
 16 18  1  0  0  0  0
 18 19  1  0  0  0  0
 20 21  2  0  0  0  0
 22 23  1  0  0  0  0
 22 43  1  0  0  0  0
 25 44  1  0  0  0  0
 25 45  1  0  0  0  0
 25 46  1  0  0  0  0
 26 47  1  0  0  0  0
 27 28  2  0  0  0  0
 27 29  2  0  0  0  0
M  END
$$$$
