p38a_3flw
 OpenBabel02232411163D
Structure written by MMmdl.
 49 51  0  0  0  0  0  0  0  0999 V2000
   36.3870   36.1040   15.7090 C   0  0  0  0  0  0  0  0  0  0  0  0
   37.6750   36.6300   15.8740 C   0  0  0  0  0  0  0  0  0  0  0  0
   32.5940   39.7540   27.2110 C   0  0  0  0  0  0  0  0  0  0  0  0
   33.9380   40.1730   27.8190 C   0  0  0  0  0  0  0  0  0  0  0  0
   31.3420   38.2390   25.6080 C   0  0  0  0  0  0  0  0  0  0  0  0
   33.5280   34.8470   23.4560 C   0  0  0  0  0  0  0  0  0  0  0  0
   34.5710   35.0440   16.7810 F   0  0  0  0  0  0  0  0  0  0  0  0
   35.7750   35.5950   16.8500 C   0  0  0  0  0  0  0  0  0  0  0  0
   38.2620   37.1820   14.8140 F   0  0  0  0  0  0  0  0  0  0  0  0
   38.3550   36.6370   17.0950 C   0  0  0  0  0  0  0  0  0  0  0  0
   37.7020   36.1570   18.2360 C   0  0  0  0  0  0  0  0  0  0  0  0
   36.4120   35.6360   18.1070 C   0  0  0  0  0  0  0  0  0  0  0  0
   35.7370   34.9950   19.1530 O   0  0  0  0  0  0  0  0  0  0  0  0
   35.2370   35.8220   20.1560 C   0  0  0  0  0  0  0  0  0  0  0  0
   35.3020   37.1710   20.2430 C   0  0  0  0  0  0  0  0  0  0  0  0
   34.7520   37.8160   21.4050 C   0  0  0  0  0  0  0  0  0  0  0  0
   34.7290   39.2270   21.5740 C   0  0  0  0  0  0  0  0  0  0  0  0
   34.2610   39.8270   22.6790 N   0  0  0  0  0  0  0  0  0  0  0  0
   34.5650   34.9520   21.1600 C   0  0  0  0  0  0  0  0  0  0  0  0
   34.3760   33.7610   21.0380 O   0  0  0  0  0  0  0  0  0  0  0  0
   34.1290   35.6360   22.3450 N   0  0  0  0  0  0  0  0  0  0  0  0
   34.2070   37.0350   22.4670 C   0  0  0  0  0  0  0  0  0  0  0  0
   33.7350   37.6100   23.6180 N   0  0  0  0  0  0  0  0  0  0  0  0
   33.7750   38.9910   23.7070 C   0  0  0  0  0  0  0  0  0  0  0  0
   33.3240   39.5920   24.8550 N   0  0  0  0  0  0  0  0  0  0  0  0
   32.7250   38.8190   25.9950 C   0  0  0  0  0  0  0  0  0  0  0  0
   31.1520   36.8040   26.1210 C   0  0  0  0  0  0  0  0  0  0  0  0
   30.8390   36.7920   27.5280 O   0  0  0  0  0  0  0  0  0  0  0  0
   33.7290   40.8010   29.0970 O   0  0  0  0  0  0  0  0  0  0  0  0
   35.8820   36.1140   14.7420 H   0  0  0  0  0  0  0  0  0  0  0  0
   31.9960   39.2130   27.9880 H   0  0  0  0  0  0  0  0  0  0  0  0
   32.0360   40.6710   26.9130 H   0  0  0  0  0  0  0  0  0  0  0  0
   34.5770   39.2950   28.0630 H   0  0  0  0  0  0  0  0  0  0  0  0
   34.4660   40.8960   27.1550 H   0  0  0  0  0  0  0  0  0  0  0  0
   30.5310   38.8880   26.0120 H   0  0  0  0  0  0  0  0  0  0  0  0
   31.2350   38.2220   24.4960 H   0  0  0  0  0  0  0  0  0  0  0  0
   34.0510   35.0870   24.4220 H   0  0  0  0  0  0  0  0  0  0  0  0
   32.4410   35.1070   23.5650 H   0  0  0  0  0  0  0  0  0  0  0  0
   33.6290   33.7500   23.2510 H   0  0  0  0  0  0  0  0  0  0  0  0
   39.3680   37.0390   17.1740 H   0  0  0  0  0  0  0  0  0  0  0  0
   38.1960   36.2180   19.2090 H   0  0  0  0  0  0  0  0  0  0  0  0
   35.7630   37.7980   19.4770 H   0  0  0  0  0  0  0  0  0  0  0  0
   35.1010   39.8820   20.7690 H   0  0  0  0  0  0  0  0  0  0  0  0
   33.3190   40.6260   24.9320 H   0  0  0  0  0  0  0  0  0  0  0  0
   33.4370   37.9820   26.2380 H   0  0  0  0  0  0  0  0  0  0  0  0
   30.3310   36.3000   25.5620 H   0  0  0  0  0  0  0  0  0  0  0  0
   32.1000   36.2190   26.0620 H   0  0  0  0  0  0  0  0  0  0  0  0
   29.8230   36.7690   27.6250 H   0  0  0  0  0  0  0  0  0  0  0  0
   33.1270   41.6010   28.9550 H   0  0  0  0  0  0  0  0  0  0  0  0
  1  2  2  0  0  0  0
  1  8  1  0  0  0  0
  1 30  1  0  0  0  0
  2  9  1  0  0  0  0
  2 10  1  0  0  0  0
  3  4  1  0  0  0  0
  3 26  1  0  0  0  0
  3 31  1  0  0  0  0
  3 32  1  0  0  0  0
  4 29  1  0  0  0  0
  4 33  1  0  0  0  0
  4 34  1  0  0  0  0
  5 26  1  0  0  0  0
  5 27  1  0  0  0  0
  5 35  1  0  0  0  0
  5 36  1  0  0  0  0
  6 21  1  0  0  0  0
  6 37  1  0  0  0  0
  6 38  1  0  0  0  0
  6 39  1  0  0  0  0
  7  8  1  0  0  0  0
  8 12  2  0  0  0  0
 10 11  2  0  0  0  0
 10 40  1  0  0  0  0
 11 12  1  0  0  0  0
 11 41  1  0  0  0  0
 12 13  1  0  0  0  0
 13 14  1  0  0  0  0
 14 15  2  0  0  0  0
 14 19  1  0  0  0  0
 15 16  1  0  0  0  0
 15 42  1  0  0  0  0
 16 17  2  0  0  0  0
 16 22  1  0  0  0  0
 17 18  1  0  0  0  0
 17 43  1  0  0  0  0
 18 24  2  0  0  0  0
 19 20  2  0  0  0  0
 19 21  1  0  0  0  0
 21 22  1  0  0  0  0
 22 23  2  0  0  0  0
 23 24  1  0  0  0  0
 24 25  1  0  0  0  0
 25 26  1  0  0  0  0
 25 44  1  0  0  0  0
 26 45  1  0  0  0  0
 27 28  1  0  0  0  0
 27 46  1  0  0  0  0
 27 47  1  0  0  0  0
 28 48  1  0  0  0  0
 29 49  1  0  0  0  0
M  END
$$$$
