p38a_3fmh
 OpenBabel02232411163D
Structure written by MMmdl.
 46 49  0  0  1  0  0  0  0  0999 V2000
   38.3500   37.2400   14.8810 F   0  0  0  0  0  0  0  0  0  0  0  0
   37.6490   36.7230   15.8870 C   0  0  0  0  0  0  0  0  0  0  0  0
   36.3040   36.4190   15.6690 C   0  0  0  0  0  0  0  0  0  0  0  0
   35.5380   35.9270   16.7310 C   0  0  0  0  0  0  0  0  0  0  0  0
   38.2910   36.5530   17.1210 C   0  0  0  0  0  0  0  0  0  0  0  0
   37.5040   36.0780   18.1670 C   0  0  0  0  0  0  0  0  0  0  0  0
   38.0260   35.9370   19.3780 F   0  0  0  0  0  0  0  0  0  0  0  0
   36.1450   35.7470   17.9760 C   0  0  0  0  0  0  0  0  0  0  0  0
   35.4230   35.1110   18.9970 O   0  0  0  0  0  0  0  0  0  0  0  0
   35.0210   35.9350   20.0450 C   0  0  0  0  0  0  0  0  0  0  0  0
   34.4960   35.0770   21.1420 C   0  0  0  0  0  0  0  0  0  0  0  0
   34.3700   33.8730   21.0950 O   0  0  0  0  0  0  0  0  0  0  0  0
   34.1240   35.7930   22.3330 N   0  0  0  0  0  0  0  0  0  0  0  0
   33.6270   35.0330   23.5140 C   0  0  0  0  0  0  0  0  0  0  0  0
   34.2160   37.1910   22.4170 C   0  0  0  0  0  0  0  0  0  0  0  0
   33.8710   37.7950   23.6020 N   0  0  0  0  0  0  0  0  0  0  0  0
   35.0670   37.2860   20.0890 C   0  0  0  0  0  0  0  0  0  0  0  0
   34.6570   37.9540   21.2940 C   0  0  0  0  0  0  0  0  0  0  0  0
   34.6830   39.3650   21.4440 C   0  0  0  0  0  0  0  0  0  0  0  0
   34.3660   39.9810   22.5950 N   0  0  0  0  0  0  0  0  0  0  0  0
   33.9860   39.1640   23.6720 C   0  0  0  0  0  0  0  0  0  0  0  0
   33.7910   39.7890   24.9010 N   0  0  0  0  0  0  0  0  0  0  0  0
   32.9040   39.1560   25.9300 C   0  0  2  0  0  0  0  0  0  0  0  0
   31.4330   39.4240   25.6050 C   0  0  0  0  0  0  0  0  0  0  0  0
   33.3450   39.7890   27.2840 C   0  0  0  0  0  0  0  0  0  0  0  0
   32.6830   39.1650   28.4520 N   0  0  0  0  0  0  0  0  0  0  0  0
   32.2520   37.8760   28.5070 N   0  0  0  0  0  0  0  0  0  0  0  0
   31.7630   37.7380   29.7740 C   0  0  0  0  0  0  0  0  0  0  0  0
   31.9240   38.9660   30.4670 N   0  0  0  0  0  0  0  0  0  0  0  0
   32.4790   39.8060   29.6510 N   0  0  0  0  0  0  0  0  0  0  0  0
   35.8370   36.5770   14.6940 H   0  0  0  0  0  0  0  0  0  0  0  0
   34.4760   35.7050   16.5820 H   0  0  0  0  0  0  0  0  0  0  0  0
   39.3420   36.8190   17.2670 H   0  0  0  0  0  0  0  0  0  0  0  0
   34.2590   35.2640   24.4150 H   0  0  0  0  0  0  0  0  0  0  0  0
   32.5680   35.3320   23.7410 H   0  0  0  0  0  0  0  0  0  0  0  0
   33.6640   33.9320   23.3110 H   0  0  0  0  0  0  0  0  0  0  0  0
   35.4140   37.8980   19.2540 H   0  0  0  0  0  0  0  0  0  0  0  0
   34.9600   40.0030   20.5900 H   0  0  0  0  0  0  0  0  0  0  0  0
   33.7430   40.8310   24.9020 H   0  0  0  0  0  0  0  0  0  0  0  0
   33.1030   38.0460   25.9560 H   0  0  0  0  0  0  0  0  0  0  0  0
   30.7750   38.9970   26.3940 H   0  0  0  0  0  0  0  0  0  0  0  0
   31.2430   40.5170   25.5170 H   0  0  0  0  0  0  0  0  0  0  0  0
   31.1610   38.9330   24.6410 H   0  0  0  0  0  0  0  0  0  0  0  0
   34.4640   39.6680   27.3950 H   0  0  0  0  0  0  0  0  0  0  0  0
   33.1080   40.8920   27.2960 H   0  0  0  0  0  0  0  0  0  0  0  0
   31.3200   36.8390   30.1990 H   0  0  0  0  0  0  0  0  0  0  0  0
  1  2  1  0  0  0  0
  2  3  2  0  0  0  0
  2  5  1  0  0  0  0
  3  4  1  0  0  0  0
  3 31  1  0  0  0  0
  4  8  2  0  0  0  0
  4 32  1  0  0  0  0
  5  6  2  0  0  0  0
  5 33  1  0  0  0  0
  6  7  1  0  0  0  0
  6  8  1  0  0  0  0
  8  9  1  0  0  0  0
  9 10  1  0  0  0  0
 10 11  1  0  0  0  0
 10 17  2  0  0  0  0
 11 12  2  0  0  0  0
 11 13  1  0  0  0  0
 13 14  1  0  0  0  0
 13 15  1  0  0  0  0
 14 34  1  0  0  0  0
 14 35  1  0  0  0  0
 14 36  1  0  0  0  0
 15 16  2  0  0  0  0
 15 18  1  0  0  0  0
 16 21  1  0  0  0  0
 17 18  1  0  0  0  0
 17 37  1  0  0  0  0
 18 19  2  0  0  0  0
 19 20  1  0  0  0  0
 19 38  1  0  0  0  0
 20 21  2  0  0  0  0
 21 22  1  0  0  0  0
 22 23  1  0  0  0  0
 22 39  1  0  0  0  0
 23 24  1  0  0  0  0
 23 25  1  0  0  0  0
 23 40  1  6  0  0  0
 24 41  1  0  0  0  0
 24 42  1  0  0  0  0
 24 43  1  0  0  0  0
 25 26  1  0  0  0  0
 25 44  1  0  0  0  0
 25 45  1  0  0  0  0
 26 27  1  0  0  0  0
 26 30  1  0  0  0  0
 27 28  2  0  0  0  0
 28 29  1  0  0  0  0
 28 46  1  0  0  0  0
 29 30  2  0  0  0  0
M  END
$$$$
