21
 OpenBabel02232411153D
Structure written by MMmdl.
 49 52  0  0  0  0  0  0  0  0999 V2000
    1.9370   28.7810    6.8260 C   0  0  0  0  0  0  0  0  0  0  0  0
   -1.5420   31.4090    7.9310 C   0  0  0  0  0  0  0  0  0  0  0  0
   -0.0740   25.9320    8.9260 C   0  0  0  0  0  0  0  0  0  0  0  0
   -0.8680   25.2350   10.0390 C   0  0  0  0  0  0  0  0  0  0  0  0
   -0.6910   23.7110    9.8500 C   0  0  0  0  0  0  0  0  0  0  0  0
   -1.3480   22.9230   10.9910 C   0  0  0  0  0  0  0  0  0  0  0  0
   -0.8340   23.3830   12.3640 C   0  0  0  0  0  0  0  0  0  0  0  0
   -1.0420   24.8930   12.5570 C   0  0  0  0  0  0  0  0  0  0  0  0
   -0.3800   25.6950   11.4270 C   0  0  0  0  0  0  0  0  0  0  0  0
    4.4790   25.2870    8.0110 C   0  0  0  0  0  0  0  0  0  0  0  0
    5.3100   24.7800    7.0200 C   0  0  0  0  0  0  0  0  0  0  0  0
    5.4110   25.4900    5.8030 C   0  0  0  0  0  0  0  0  0  0  0  0
    4.7180   26.6790    5.5810 C   0  0  0  0  0  0  0  0  0  0  0  0
    1.2090   27.8400    7.5510 N   0  0  0  0  0  0  0  0  0  0  0  0
    0.0080   28.1780    8.0810 C   0  0  0  0  0  0  0  0  0  0  0  0
   -0.6840   27.2830    8.8040 O   0  0  0  0  0  0  0  0  0  0  0  0
   -0.5110   29.4870    7.8900 C   0  0  0  0  0  0  0  0  0  0  0  0
   -1.6570   30.1450    8.3500 N   0  0  0  0  0  0  0  0  0  0  0  0
   -0.3230   31.6300    7.1970 N   0  0  0  0  0  0  0  0  0  0  0  0
    0.3330   30.4030    7.1390 C   0  0  0  0  0  0  0  0  0  0  0  0
    1.5330   30.0800    6.5580 N   0  0  0  0  0  0  0  0  0  0  0  0
    3.1660   28.3770    6.3170 N   0  0  0  0  0  0  0  0  0  0  0  0
    3.8590   27.1530    6.6000 C   0  0  0  0  0  0  0  0  0  0  0  0
    3.7570   26.4730    7.8190 C   0  0  0  0  0  0  0  0  0  0  0  0
   -2.2400   32.2210    8.1110 H   0  0  0  0  0  0  0  0  0  0  0  0
    1.0010   26.0390    9.1930 H   0  0  0  0  0  0  0  0  0  0  0  0
   -0.2110   25.4510    7.9360 H   0  0  0  0  0  0  0  0  0  0  0  0
   -1.9510   25.4890    9.9470 H   0  0  0  0  0  0  0  0  0  0  0  0
   -1.1510   23.4040    8.8860 H   0  0  0  0  0  0  0  0  0  0  0  0
    0.3990   23.4640    9.8230 H   0  0  0  0  0  0  0  0  0  0  0  0
   -2.4490   23.0720   10.9530 H   0  0  0  0  0  0  0  0  0  0  0  0
   -1.1280   21.8370   10.8660 H   0  0  0  0  0  0  0  0  0  0  0  0
   -1.3750   22.8290   13.1650 H   0  0  0  0  0  0  0  0  0  0  0  0
    0.2530   23.1510   12.4410 H   0  0  0  0  0  0  0  0  0  0  0  0
   -2.1330   25.1160   12.5960 H   0  0  0  0  0  0  0  0  0  0  0  0
   -0.5900   25.2020   13.5280 H   0  0  0  0  0  0  0  0  0  0  0  0
    0.7260   25.5620   11.5030 H   0  0  0  0  0  0  0  0  0  0  0  0
   -0.6130   26.7750   11.5610 H   0  0  0  0  0  0  0  0  0  0  0  0
    4.3740   24.7530    8.9600 H   0  0  0  0  0  0  0  0  0  0  0  0
    5.8650   23.8560    7.1610 H   0  0  0  0  0  0  0  0  0  0  0  0
    4.8230   27.2450    4.6580 H   0  0  0  0  0  0  0  0  0  0  0  0
   -0.0560   32.5090    6.7310 H   0  0  0  0  0  0  0  0  0  0  0  0
    3.6700   29.0250    5.6660 H   0  0  0  0  0  0  0  0  0  0  0  0
    3.1190   26.8330    8.6250 H   0  0  0  0  0  0  0  0  0  0  0  0
    6.2360   24.8540    4.9040 O   0  0  0  0  0  0  0  0  0  0  0  0
    6.4640   25.4810    3.6150 C   0  0  0  0  0  0  0  0  0  0  0  0
    7.1460   24.7470    3.1230 H   0  0  0  0  0  0  0  0  0  0  0  0
    5.5060   25.5720    3.0610 H   0  0  0  0  0  0  0  0  0  0  0  0
    6.9670   26.4610    3.7580 H   0  0  0  0  0  0  0  0  0  0  0  0
  1 14  2  0  0  0  0
  1 21  1  0  0  0  0
  1 22  1  0  0  0  0
  2 18  2  0  0  0  0
  2 19  1  0  0  0  0
  2 25  1  0  0  0  0
  3  4  1  0  0  0  0
  3 16  1  0  0  0  0
  3 26  1  0  0  0  0
  3 27  1  0  0  0  0
  4  5  1  0  0  0  0
  4  9  1  0  0  0  0
  4 28  1  0  0  0  0
  5  6  1  0  0  0  0
  5 29  1  0  0  0  0
  5 30  1  0  0  0  0
  6  7  1  0  0  0  0
  6 31  1  0  0  0  0
  6 32  1  0  0  0  0
  7  8  1  0  0  0  0
  7 33  1  0  0  0  0
  7 34  1  0  0  0  0
  8  9  1  0  0  0  0
  8 35  1  0  0  0  0
  8 36  1  0  0  0  0
  9 37  1  0  0  0  0
  9 38  1  0  0  0  0
 10 11  2  0  0  0  0
 10 24  1  0  0  0  0
 10 39  1  0  0  0  0
 11 12  1  0  0  0  0
 11 40  1  0  0  0  0
 12 13  2  0  0  0  0
 12 45  1  0  0  0  0
 13 23  1  0  0  0  0
 13 41  1  0  0  0  0
 14 15  1  0  0  0  0
 15 16  1  0  0  0  0
 15 17  2  0  0  0  0
 17 18  1  0  0  0  0
 17 20  1  0  0  0  0
 19 20  1  0  0  0  0
 19 42  1  0  0  0  0
 20 21  2  0  0  0  0
 22 23  1  0  0  0  0
 22 43  1  0  0  0  0
 23 24  2  0  0  0  0
 24 44  1  0  0  0  0
 45 46  1  0  0  0  0
 46 47  1  0  0  0  0
 46 48  1  0  0  0  0
 46 49  1  0  0  0  0
M  END
$$$$
