18638-1
 OpenBabel02232411163D
Structure written by MMmdl.
 52 53  0  0  0  0  0  0  0  0999 V2000
   24.0300   12.4450   30.3230 C   0  0  0  0  0  0  0  0  0  0  0  0
   23.5630   11.0070   30.4410 C   0  0  0  0  0  0  0  0  0  0  0  0
   22.3050   11.1280   31.2220 O   0  0  0  0  0  0  0  0  0  0  0  0
   21.6600    9.9990   31.5830 C   0  0  0  0  0  0  0  0  0  0  0  0
   22.1300    8.7990   31.1620 N   0  0  0  0  0  0  0  0  0  0  0  0
   21.3920    7.6750   31.4990 C   0  0  0  0  0  0  0  0  0  0  0  0
   20.2340    7.7390   32.2700 C   0  0  0  0  0  0  0  0  0  0  0  0
   19.7530    8.9990   32.7130 C   0  0  0  0  0  0  0  0  0  0  0  0
   18.5950    9.0610   33.4470 N   0  0  0  0  0  0  0  0  0  0  0  0
   20.4800   10.1820   32.3640 C   0  0  0  0  0  0  0  0  0  0  0  0
   20.0800   11.4890   32.7170 C   0  0  0  0  0  0  0  0  0  0  0  0
   19.7980   12.5850   32.9730 N   0  0  0  0  0  0  0  0  0  0  0  0
   21.9320    6.4830   30.9550 N   0  0  0  0  0  0  0  0  0  0  0  0
   21.2510    5.2490   30.8710 C   0  0  0  0  0  0  0  0  0  0  0  0
   20.1750    5.0550   31.3960 O   0  0  0  0  0  0  0  0  0  0  0  0
   21.9330    4.2170   29.9880 C   0  0  0  0  0  0  0  0  0  0  0  0
   23.2940    3.7710   30.4300 C   0  0  0  0  0  0  0  0  0  0  0  0
   24.4570    4.4620   29.9800 C   0  0  0  0  0  0  0  0  0  0  0  0
   24.1530    5.5960   29.2320 O   0  0  0  0  0  0  0  0  0  0  0  0
   25.2050    6.5880   29.0770 C   0  0  0  0  0  0  0  0  0  0  0  0
   25.7360    3.9730   30.2240 C   0  0  0  0  0  0  0  0  0  0  0  0
   25.9140    2.8030   30.9840 C   0  0  0  0  0  0  0  0  0  0  0  0
   27.5440    2.1710   31.1460 S   0  0  0  0  0  0  0  0  0  0  0  0
   28.5330    3.2720   31.0470 O   0  0  0  0  0  0  0  0  0  0  0  0
   27.6740    1.4680   32.4430 O   0  0  0  0  0  0  0  0  0  0  0  0
   27.6990    1.0770   29.8080 C   0  0  0  0  0  0  0  0  0  0  0  0
   24.7760    2.1700   31.5040 C   0  0  0  0  0  0  0  0  0  0  0  0
   23.4700    2.6350   31.2040 C   0  0  0  0  0  0  0  0  0  0  0  0
   25.0240    1.1090   32.3390 O   0  0  0  0  0  0  0  0  0  0  0  0
   23.9310    0.1870   32.6140 C   0  0  0  0  0  0  0  0  0  0  0  0
   24.9460   12.4710   29.6800 H   0  0  0  0  0  0  0  0  0  0  0  0
   23.2510   13.0810   29.8400 H   0  0  0  0  0  0  0  0  0  0  0  0
   24.2780   12.8760   31.3180 H   0  0  0  0  0  0  0  0  0  0  0  0
   23.3040   10.5600   29.4550 H   0  0  0  0  0  0  0  0  0  0  0  0
   24.2720   10.3710   31.0160 H   0  0  0  0  0  0  0  0  0  0  0  0
   19.6740    6.8360   32.5230 H   0  0  0  0  0  0  0  0  0  0  0  0
   18.0860    8.1980   33.7170 H   0  0  0  0  0  0  0  0  0  0  0  0
   18.2010    9.9540   33.7450 H   0  0  0  0  0  0  0  0  0  0  0  0
   22.8450    6.5760   30.4520 H   0  0  0  0  0  0  0  0  0  0  0  0
   21.2650    3.3180   29.9190 H   0  0  0  0  0  0  0  0  0  0  0  0
   22.0210    4.6720   28.9590 H   0  0  0  0  0  0  0  0  0  0  0  0
   24.6300    7.4640   28.6980 H   0  0  0  0  0  0  0  0  0  0  0  0
   25.6810    6.8110   30.0560 H   0  0  0  0  0  0  0  0  0  0  0  0
   25.9380    6.2230   28.3270 H   0  0  0  0  0  0  0  0  0  0  0  0
   26.6030    4.4930   29.7990 H   0  0  0  0  0  0  0  0  0  0  0  0
   27.6270    1.6080   28.8220 H   0  0  0  0  0  0  0  0  0  0  0  0
   28.6800    0.5340   29.8030 H   0  0  0  0  0  0  0  0  0  0  0  0
   26.8970    0.2940   29.7980 H   0  0  0  0  0  0  0  0  0  0  0  0
   22.6000    2.0870   31.5670 H   0  0  0  0  0  0  0  0  0  0  0  0
   23.5390   -0.2230   31.6590 H   0  0  0  0  0  0  0  0  0  0  0  0
   23.1450    0.6820   33.2230 H   0  0  0  0  0  0  0  0  0  0  0  0
   24.4500   -0.6080   33.2030 H   0  0  0  0  0  0  0  0  0  0  0  0
  1  2  1  0  0  0  0
  1 31  1  0  0  0  0
  1 32  1  0  0  0  0
  1 33  1  0  0  0  0
  2  3  1  0  0  0  0
  2 34  1  0  0  0  0
  2 35  1  0  0  0  0
  3  4  1  0  0  0  0
  4 10  2  0  0  0  0
  4  5  1  0  0  0  0
  5  6  2  0  0  0  0
  6  7  1  0  0  0  0
  6 13  1  0  0  0  0
  7  8  2  0  0  0  0
  7 36  1  0  0  0  0
  8  9  1  0  0  0  0
  8 10  1  0  0  0  0
  9 37  1  0  0  0  0
  9 38  1  0  0  0  0
 10 11  1  0  0  0  0
 11 12  3  0  0  0  0
 13 14  1  0  0  0  0
 13 39  1  0  0  0  0
 14 15  2  0  0  0  0
 14 16  1  0  0  0  0
 16 17  1  0  0  0  0
 16 40  1  0  0  0  0
 16 41  1  0  0  0  0
 17 28  2  0  0  0  0
 17 18  1  0  0  0  0
 18 19  1  0  0  0  0
 18 21  2  0  0  0  0
 19 20  1  0  0  0  0
 20 42  1  0  0  0  0
 20 43  1  0  0  0  0
 20 44  1  0  0  0  0
 21 22  1  0  0  0  0
 21 45  1  0  0  0  0
 22 23  1  0  0  0  0
 22 27  2  0  0  0  0
 23 24  2  0  0  0  0
 23 25  2  0  0  0  0
 23 26  1  0  0  0  0
 26 46  1  0  0  0  0
 26 47  1  0  0  0  0
 26 48  1  0  0  0  0
 27 28  1  0  0  0  0
 27 29  1  0  0  0  0
 28 49  1  0  0  0  0
 29 30  1  0  0  0  0
 30 50  1  0  0  0  0
 30 51  1  0  0  0  0
 30 52  1  0  0  0  0
M  END
$$$$
