42
 OpenBabel02232411163D
Structure written by MMmdl.
 44 47  0  0  0  0  0  0  0  0999 V2000
    3.6880  -50.0160    6.1470 O   0  0  0  0  0  0  0  0  0  0  0  0
    2.9320  -49.1190    6.5730 C   0  0  0  0  0  0  0  0  0  0  0  0
    3.2770  -48.0500    7.0940 O   0  5  0  0  0  0  0  0  0  0  0  0
    1.4290  -49.4260    6.4320 C   0  0  0  0  0  0  0  0  0  0  0  0
   -0.4230  -50.7710    6.5540 C   0  0  0  0  0  0  0  0  0  0  0  0
   -1.3450  -51.8110    6.7680 C   0  0  0  0  0  0  0  0  0  0  0  0
   -2.6680  -51.5740    6.4280 C   0  0  0  0  0  0  0  0  0  0  0  0
   -3.0760  -50.3330    5.8820 C   0  0  0  0  0  0  0  0  0  0  0  0
   -2.1720  -49.3010    5.6710 C   0  0  0  0  0  0  0  0  0  0  0  0
   -0.8220  -49.4970    6.0110 C   0  0  0  0  0  0  0  0  0  0  0  0
    0.3640  -48.6680    5.9580 C   0  0  0  0  0  0  0  0  0  0  0  0
    0.3520  -47.2590    5.4810 C   0  0  0  0  0  0  0  0  0  0  0  0
    0.3100  -46.2350    6.6290 C   0  0  0  0  0  0  0  0  0  0  0  0
   -0.8570  -46.4080    7.5930 C   0  0  0  0  0  0  0  0  0  0  0  0
   -2.0450  -45.8690    6.8960 O   0  0  0  0  0  0  0  0  0  0  0  0
   -3.2240  -45.8730    7.5790 C   0  0  0  0  0  0  0  0  0  0  0  0
   -5.7430  -45.6390    8.8120 C   0  0  0  0  0  0  0  0  0  0  0  0
   -4.7530  -46.4050    9.3770 C   0  0  0  0  0  0  0  0  0  0  0  0
   -3.4740  -46.5250    8.7730 C   0  0  0  0  0  0  0  0  0  0  0  0
   -1.0370  -52.7680    7.1890 H   0  0  0  0  0  0  0  0  0  0  0  0
   -3.4170  -52.3510    6.5820 H   0  0  0  0  0  0  0  0  0  0  0  0
   -4.1270  -50.1960    5.6260 H   0  0  0  0  0  0  0  0  0  0  0  0
   -2.5100  -48.3520    5.2530 H   0  0  0  0  0  0  0  0  0  0  0  0
   -0.5550  -47.1050    4.8410 H   0  0  0  0  0  0  0  0  0  0  0  0
    1.2600  -47.0470    4.8650 H   0  0  0  0  0  0  0  0  0  0  0  0
    0.2620  -45.2090    6.1970 H   0  0  0  0  0  0  0  0  0  0  0  0
    1.2480  -46.3370    7.2330 H   0  0  0  0  0  0  0  0  0  0  0  0
   -0.7310  -45.7750    8.4980 H   0  0  0  0  0  0  0  0  0  0  0  0
   -1.0710  -47.4730    7.8180 H   0  0  0  0  0  0  0  0  0  0  0  0
   -2.7400  -47.1460    9.2730 H   0  0  0  0  0  0  0  0  0  0  0  0
   -5.5190  -44.9850    7.5610 C   0  0  0  0  0  0  0  0  0  0  0  0
   -4.2570  -45.1020    6.9210 C   0  0  0  0  0  0  0  0  0  0  0  0
   -4.0540  -44.4950    5.6490 C   0  0  0  0  0  0  0  0  0  0  0  0
   -5.0600  -43.7780    5.0480 C   0  0  0  0  0  0  0  0  0  0  0  0
   -6.3230  -43.6540    5.6870 C   0  0  0  0  0  0  0  0  0  0  0  0
   -6.5510  -44.2410    6.9080 C   0  0  0  0  0  0  0  0  0  0  0  0
   -3.0940  -44.6330    5.1480 H   0  0  0  0  0  0  0  0  0  0  0  0
   -4.9070  -43.3040    4.0800 H   0  0  0  0  0  0  0  0  0  0  0  0
   -7.1090  -43.0920    5.1880 H   0  0  0  0  0  0  0  0  0  0  0  0
   -7.5240  -44.1590    7.3900 H   0  0  0  0  0  0  0  0  0  0  0  0
   -4.9410  -46.9420   10.3100 H   0  0  0  0  0  0  0  0  0  0  0  0
   -6.7160  -45.5390    9.2920 H   0  0  0  0  0  0  0  0  0  0  0  0
    0.9560  -50.7020    6.8030 N   0  0  0  0  0  0  0  0  0  0  0  0
    1.4960  -51.4780    7.1680 H   0  0  0  0  0  0  0  0  0  0  0  0
  1  2  2  0  0  0  0
  2  3  1  0  0  0  0
  2  4  1  0  0  0  0
  4 11  2  0  0  0  0
  4 43  1  0  0  0  0
  5  6  2  0  0  0  0
  5 10  1  0  0  0  0
  5 43  1  0  0  0  0
  6  7  1  0  0  0  0
  6 20  1  0  0  0  0
  7  8  2  0  0  0  0
  7 21  1  0  0  0  0
  8  9  1  0  0  0  0
  8 22  1  0  0  0  0
  9 10  2  0  0  0  0
  9 23  1  0  0  0  0
 10 11  1  0  0  0  0
 11 12  1  0  0  0  0
 12 24  1  0  0  0  0
 12 25  1  0  0  0  0
 12 13  1  0  0  0  0
 13 14  1  0  0  0  0
 13 26  1  0  0  0  0
 13 27  1  0  0  0  0
 14 15  1  0  0  0  0
 14 28  1  0  0  0  0
 14 29  1  0  0  0  0
 15 16  1  0  0  0  0
 16 19  2  0  0  0  0
 16 32  1  0  0  0  0
 17 18  2  0  0  0  0
 17 31  1  0  0  0  0
 17 42  1  0  0  0  0
 18 19  1  0  0  0  0
 18 41  1  0  0  0  0
 19 30  1  0  0  0  0
 31 32  2  0  0  0  0
 31 36  1  0  0  0  0
 32 33  1  0  0  0  0
 33 34  2  0  0  0  0
 33 37  1  0  0  0  0
 34 35  1  0  0  0  0
 34 38  1  0  0  0  0
 35 36  2  0  0  0  0
 35 39  1  0  0  0  0
 36 40  1  0  0  0  0
 43 44  1  0  0  0  0
M  CHG  1   3  -1
M  END
$$$$
