18660-1
 OpenBabel02232411163D
Structure written by MMmdl.
 52 53  0  0  0  0  0  0  0  0999 V2000
   25.0180   14.0240   27.7420 C   0  0  0  0  0  0  0  0  0  0  0  0
   25.2670   12.5830   28.6720 S   0  0  0  0  0  0  0  0  0  0  0  0
   26.3140   12.8400   29.6710 O   0  0  0  0  0  0  0  0  0  0  0  0
   25.5780   11.4460   27.7970 O   0  0  0  0  0  0  0  0  0  0  0  0
   23.7270   12.3460   29.5140 C   0  0  0  0  0  0  0  0  0  0  0  0
   23.5720   10.9800   30.1650 C   0  0  0  0  0  0  0  0  0  0  0  0
   22.3920   11.1490   31.0640 O   0  0  0  0  0  0  0  0  0  0  0  0
   21.7260   10.0370   31.4650 C   0  0  0  0  0  0  0  0  0  0  0  0
   22.1550    8.8300   31.0330 N   0  0  0  0  0  0  0  0  0  0  0  0
   21.3970    7.7180   31.3830 C   0  0  0  0  0  0  0  0  0  0  0  0
   20.2650    7.8080   32.1870 C   0  0  0  0  0  0  0  0  0  0  0  0
   19.8390    9.0760   32.6620 C   0  0  0  0  0  0  0  0  0  0  0  0
   18.7160    9.1580   33.4470 N   0  0  0  0  0  0  0  0  0  0  0  0
   20.5850   10.2450   32.2940 C   0  0  0  0  0  0  0  0  0  0  0  0
   20.2240   11.5550   32.6750 C   0  0  0  0  0  0  0  0  0  0  0  0
   19.9630   12.6470   32.9660 N   0  0  0  0  0  0  0  0  0  0  0  0
   21.9050    6.5310   30.8190 N   0  0  0  0  0  0  0  0  0  0  0  0
   21.2560    5.2710   30.7900 C   0  0  0  0  0  0  0  0  0  0  0  0
   20.1830    5.0770   31.3200 O   0  0  0  0  0  0  0  0  0  0  0  0
   21.9970    4.2300   29.9660 C   0  0  0  0  0  0  0  0  0  0  0  0
   23.3110    3.8310   30.5710 C   0  0  0  0  0  0  0  0  0  0  0  0
   24.4770    4.5890   30.3150 C   0  0  0  0  0  0  0  0  0  0  0  0
   24.2590    5.6580   29.4530 O   0  0  0  0  0  0  0  0  0  0  0  0
   25.3460    6.6040   29.2700 C   0  0  0  0  0  0  0  0  0  0  0  0
   25.7140    4.2490   30.8770 C   0  0  0  0  0  0  0  0  0  0  0  0
   25.8060    3.1350   31.7050 C   0  0  0  0  0  0  0  0  0  0  0  0
   24.6520    2.3630   31.9480 C   0  0  0  0  0  0  0  0  0  0  0  0
   23.4130    2.6970   31.3830 C   0  0  0  0  0  0  0  0  0  0  0  0
   24.8910    1.2990   32.7930 O   0  0  0  0  0  0  0  0  0  0  0  0
   23.8350    0.3200   32.9660 C   0  0  0  0  0  0  0  0  0  0  0  0
   25.0650   14.9560   28.3680 H   0  0  0  0  0  0  0  0  0  0  0  0
   24.0310   14.0490   27.2120 H   0  0  0  0  0  0  0  0  0  0  0  0
   25.8090   14.1670   26.9550 H   0  0  0  0  0  0  0  0  0  0  0  0
   23.5800   13.1530   30.2880 H   0  0  0  0  0  0  0  0  0  0  0  0
   22.8790   12.4930   28.7790 H   0  0  0  0  0  0  0  0  0  0  0  0
   24.4100   10.7040   30.8440 H   0  0  0  0  0  0  0  0  0  0  0  0
   23.3420   10.1870   29.4140 H   0  0  0  0  0  0  0  0  0  0  0  0
   19.6850    6.9170   32.4450 H   0  0  0  0  0  0  0  0  0  0  0  0
   18.3510   10.0600   33.7570 H   0  0  0  0  0  0  0  0  0  0  0  0
   18.1870    8.3090   33.7150 H   0  0  0  0  0  0  0  0  0  0  0  0
   22.8290    6.6220   30.3250 H   0  0  0  0  0  0  0  0  0  0  0  0
   21.3420    3.3280   29.8580 H   0  0  0  0  0  0  0  0  0  0  0  0
   22.1790    4.6640   28.9450 H   0  0  0  0  0  0  0  0  0  0  0  0
   26.1780    6.1100   28.7250 H   0  0  0  0  0  0  0  0  0  0  0  0
   24.8530    7.3850   28.6480 H   0  0  0  0  0  0  0  0  0  0  0  0
   25.6690    7.0140   30.2510 H   0  0  0  0  0  0  0  0  0  0  0  0
   26.6150    4.8350   30.6730 H   0  0  0  0  0  0  0  0  0  0  0  0
   26.7640    2.8590   32.1550 H   0  0  0  0  0  0  0  0  0  0  0  0
   22.5330    2.0810   31.5700 H   0  0  0  0  0  0  0  0  0  0  0  0
   24.3300   -0.4290   33.6290 H   0  0  0  0  0  0  0  0  0  0  0  0
   22.9590    0.7820   33.4690 H   0  0  0  0  0  0  0  0  0  0  0  0
   23.5690   -0.1300   31.9850 H   0  0  0  0  0  0  0  0  0  0  0  0
  1  2  1  0  0  0  0
  1 31  1  0  0  0  0
  1 32  1  0  0  0  0
  1 33  1  0  0  0  0
  2  3  2  0  0  0  0
  2  4  2  0  0  0  0
  2  5  1  0  0  0  0
  5  6  1  0  0  0  0
  5 34  1  0  0  0  0
  5 35  1  0  0  0  0
  6  7  1  0  0  0  0
  6 36  1  0  0  0  0
  6 37  1  0  0  0  0
  7  8  1  0  0  0  0
  8 14  2  0  0  0  0
  8  9  1  0  0  0  0
  9 10  2  0  0  0  0
 10 11  1  0  0  0  0
 10 17  1  0  0  0  0
 11 12  2  0  0  0  0
 11 38  1  0  0  0  0
 12 13  1  0  0  0  0
 12 14  1  0  0  0  0
 13 39  1  0  0  0  0
 13 40  1  0  0  0  0
 14 15  1  0  0  0  0
 15 16  3  0  0  0  0
 17 18  1  0  0  0  0
 17 41  1  0  0  0  0
 18 19  2  0  0  0  0
 18 20  1  0  0  0  0
 20 21  1  0  0  0  0
 20 42  1  0  0  0  0
 20 43  1  0  0  0  0
 21 28  2  0  0  0  0
 21 22  1  0  0  0  0
 22 23  1  0  0  0  0
 22 25  2  0  0  0  0
 23 24  1  0  0  0  0
 24 44  1  0  0  0  0
 24 45  1  0  0  0  0
 24 46  1  0  0  0  0
 25 26  1  0  0  0  0
 25 47  1  0  0  0  0
 26 27  2  0  0  0  0
 26 48  1  0  0  0  0
 27 28  1  0  0  0  0
 27 29  1  0  0  0  0
 28 49  1  0  0  0  0
 29 30  1  0  0  0  0
 30 50  1  0  0  0  0
 30 51  1  0  0  0  0
 30 52  1  0  0  0  0
M  END
$$$$
