p38a_2bb
 OpenBabel02232411163D
Structure written by MMmdl.
 44 46  0  0  0  0  0  0  0  0999 V2000
   38.2210   36.4940   17.2370 C   0  0  0  0  0  0  0  0  0  0  0  0
   34.6300   35.1810   21.4140 C   0  0  0  0  0  0  0  0  0  0  0  0
   37.4300   36.0770   18.3040 C   0  0  0  0  0  0  0  0  0  0  0  0
   34.3350   39.2810   23.9600 C   0  0  0  0  0  0  0  0  0  0  0  0
   33.9540   39.2050   26.4480 C   0  0  0  0  0  0  0  0  0  0  0  0
   34.7320   38.0530   21.5240 C   0  0  0  0  0  0  0  0  0  0  0  0
   35.0290   37.3850   20.2850 C   0  0  0  0  0  0  0  0  0  0  0  0
   37.5740   36.6390   16.0010 C   0  0  0  0  0  0  0  0  0  0  0  0
   36.2200   36.3590   15.8040 C   0  0  0  0  0  0  0  0  0  0  0  0
   35.4490   35.9360   16.8920 C   0  0  0  0  0  0  0  0  0  0  0  0
   34.5100   37.2950   22.7130 C   0  0  0  0  0  0  0  0  0  0  0  0
   34.6570   39.4650   21.6420 C   0  0  0  0  0  0  0  0  0  0  0  0
   35.0210   36.0330   20.2590 C   0  0  0  0  0  0  0  0  0  0  0  0
   36.0580   35.7880   18.1410 C   0  0  0  0  0  0  0  0  0  0  0  0
   34.2290   35.1240   23.9090 C   0  0  0  0  0  0  0  0  0  0  0  0
   37.9680   35.9440   19.5090 F   0  0  0  0  0  0  0  0  0  0  0  0
   35.3180   35.2040   19.1790 O   0  0  0  0  0  0  0  0  0  0  0  0
   34.4580   40.0880   22.8140 N   0  0  0  0  0  0  0  0  0  0  0  0
   34.4440   33.9840   21.3790 O   0  0  0  0  0  0  0  0  0  0  0  0
   34.4690   35.8940   22.6550 N   0  0  0  0  0  0  0  0  0  0  0  0
   34.3130   37.9010   23.9310 N   0  0  0  0  0  0  0  0  0  0  0  0
   34.2880   39.9300   25.1790 N   0  0  0  0  0  0  0  0  0  0  0  0
   39.2810   36.7350   17.3620 H   0  0  0  0  0  0  0  0  0  0  0  0
   34.5070   38.2250   26.4560 H   0  0  0  0  0  0  0  0  0  0  0  0
   35.2640   37.9970   19.4110 H   0  0  0  0  0  0  0  0  0  0  0  0
   35.7530   36.4830   14.8240 H   0  0  0  0  0  0  0  0  0  0  0  0
   34.3800   35.7380   16.7580 H   0  0  0  0  0  0  0  0  0  0  0  0
   34.7520   40.1010   20.7460 H   0  0  0  0  0  0  0  0  0  0  0  0
   34.9790   35.4240   24.6900 H   0  0  0  0  0  0  0  0  0  0  0  0
   33.2000   35.3440   24.3020 H   0  0  0  0  0  0  0  0  0  0  0  0
   34.3220   34.0240   23.7120 H   0  0  0  0  0  0  0  0  0  0  0  0
   34.0830   40.9490   25.1990 H   0  0  0  0  0  0  0  0  0  0  0  0
   38.2820   37.1030   14.9730 F   0  0  0  0  0  0  0  0  0  0  0  0
   34.3890   40.0780   27.6280 C   0  0  0  0  0  0  0  0  0  0  0  0
   32.8440   39.0250   26.4830 H   0  0  0  0  0  0  0  0  0  0  0  0
   35.4870   40.3100   27.5320 H   0  0  0  0  0  0  0  0  0  0  0  0
   33.8770   41.0820   27.5540 H   0  0  0  0  0  0  0  0  0  0  0  0
   34.2210   40.7650   30.2810 C   0  0  0  0  0  0  0  0  0  0  0  0
   34.0690   39.3930   29.2250 S   0  0  0  0  0  0  0  0  0  0  0  0
   32.7030   38.8240   29.3080 O   0  0  0  0  0  0  0  0  0  0  0  0
   35.0790   38.3680   29.5790 O   0  0  0  0  0  0  0  0  0  0  0  0
   35.2020   41.2910   30.1410 H   0  0  0  0  0  0  0  0  0  0  0  0
   33.4310   41.5390   30.0900 H   0  0  0  0  0  0  0  0  0  0  0  0
   34.1480   40.4930   31.3630 H   0  0  0  0  0  0  0  0  0  0  0  0
  1  3  2  0  0  0  0
  1  8  1  0  0  0  0
  1 23  1  0  0  0  0
  2 13  1  0  0  0  0
  2 19  2  0  0  0  0
  2 20  1  0  0  0  0
  3 14  1  0  0  0  0
  3 16  1  0  0  0  0
  4 18  2  0  0  0  0
  4 21  1  0  0  0  0
  4 22  1  0  0  0  0
  5 22  1  0  0  0  0
  5 24  1  0  0  0  0
  5 34  1  0  0  0  0
  5 35  1  0  0  0  0
  6  7  1  0  0  0  0
  6 11  1  0  0  0  0
  6 12  2  0  0  0  0
  7 13  2  0  0  0  0
  7 25  1  0  0  0  0
  8  9  2  0  0  0  0
  8 33  1  0  0  0  0
  9 10  1  0  0  0  0
  9 26  1  0  0  0  0
 10 14  2  0  0  0  0
 10 27  1  0  0  0  0
 11 20  1  0  0  0  0
 11 21  2  0  0  0  0
 12 18  1  0  0  0  0
 12 28  1  0  0  0  0
 13 17  1  0  0  0  0
 14 17  1  0  0  0  0
 15 20  1  0  0  0  0
 15 29  1  0  0  0  0
 15 30  1  0  0  0  0
 15 31  1  0  0  0  0
 22 32  1  0  0  0  0
 34 36  1  0  0  0  0
 34 37  1  0  0  0  0
 34 39  1  0  0  0  0
 38 39  1  0  0  0  0
 38 42  1  0  0  0  0
 38 43  1  0  0  0  0
 38 44  1  0  0  0  0
 39 40  2  0  0  0  0
 39 41  2  0  0  0  0
M  END
$$$$
