57
 OpenBabel02232411163D
Structure written by MMmdl.
 47 50  0  0  0  0  0  0  0  0999 V2000
    3.4620  -48.2030    7.2280 O   0  0  0  0  0  0  0  0  0  0  0  0
    3.1180  -49.1490    6.5100 C   0  0  0  0  0  0  0  0  0  0  0  0
    3.8470  -49.8470    5.7790 O   0  5  0  0  0  0  0  0  0  0  0  0
    1.6300  -49.5590    6.4750 C   0  0  0  0  0  0  0  0  0  0  0  0
   -0.1560  -50.9850    6.6600 C   0  0  0  0  0  0  0  0  0  0  0  0
   -1.0420  -52.0340    6.9590 C   0  0  0  0  0  0  0  0  0  0  0  0
   -2.3580  -51.9070    6.5400 C   0  0  0  0  0  0  0  0  0  0  0  0
   -2.7850  -50.7770    5.8050 C   0  0  0  0  0  0  0  0  0  0  0  0
   -1.9110  -49.7480    5.4870 C   0  0  0  0  0  0  0  0  0  0  0  0
   -0.5860  -49.8010    5.9520 C   0  0  0  0  0  0  0  0  0  0  0  0
    0.5420  -48.9010    5.9030 C   0  0  0  0  0  0  0  0  0  0  0  0
    0.4760  -47.4970    5.4120 C   0  0  0  0  0  0  0  0  0  0  0  0
   -0.1790  -46.5440    6.4380 C   0  0  0  0  0  0  0  0  0  0  0  0
   -1.6770  -46.8180    6.5520 C   0  0  0  0  0  0  0  0  0  0  0  0
   -2.2520  -45.6320    7.2180 O   0  0  0  0  0  0  0  0  0  0  0  0
   -3.4410  -45.8620    7.8760 C   0  0  0  0  0  0  0  0  0  0  0  0
   -5.8500  -46.0590    9.2940 C   0  0  0  0  0  0  0  0  0  0  0  0
   -4.7470  -46.7700    9.6950 C   0  0  0  0  0  0  0  0  0  0  0  0
   -3.5230  -46.6810    8.9820 C   0  0  0  0  0  0  0  0  0  0  0  0
   -0.7210  -52.9200    7.5090 H   0  0  0  0  0  0  0  0  0  0  0  0
   -3.0830  -52.6880    6.7750 H   0  0  0  0  0  0  0  0  0  0  0  0
   -3.8280  -50.7200    5.4880 H   0  0  0  0  0  0  0  0  0  0  0  0
   -2.2620  -48.9220    4.8690 H   0  0  0  0  0  0  0  0  0  0  0  0
   -0.1330  -47.4620    4.4750 H   0  0  0  0  0  0  0  0  0  0  0  0
    1.4980  -47.1080    5.1840 H   0  0  0  0  0  0  0  0  0  0  0  0
   -0.0340  -45.4870    6.1140 H   0  0  0  0  0  0  0  0  0  0  0  0
    0.2940  -46.6680    7.4390 H   0  0  0  0  0  0  0  0  0  0  0  0
   -2.1910  -46.8330    5.5650 H   0  0  0  0  0  0  0  0  0  0  0  0
   -1.8970  -47.7180    7.1620 H   0  0  0  0  0  0  0  0  0  0  0  0
   -2.6730  -47.2590    9.3300 H   0  0  0  0  0  0  0  0  0  0  0  0
   -5.8080  -45.2780    8.0970 C   0  0  0  0  0  0  0  0  0  0  0  0
   -4.5920  -45.1560    7.3750 C   0  0  0  0  0  0  0  0  0  0  0  0
   -4.5720  -44.4240    6.1480 C   0  0  0  0  0  0  0  0  0  0  0  0
   -5.7270  -43.8750    5.6470 C   0  0  0  0  0  0  0  0  0  0  0  0
   -6.9520  -44.0150    6.3600 C   0  0  0  0  0  0  0  0  0  0  0  0
   -6.9910  -44.6800    7.5600 C   0  0  0  0  0  0  0  0  0  0  0  0
   -3.6310  -44.3370    5.5990 H   0  0  0  0  0  0  0  0  0  0  0  0
   -5.7280  -43.3350    4.7010 H   0  0  0  0  0  0  0  0  0  0  0  0
   -7.8640  -43.5980    5.9370 H   0  0  0  0  0  0  0  0  0  0  0  0
   -7.9280  -44.8000    8.1020 H   0  0  0  0  0  0  0  0  0  0  0  0
   -4.8020  -47.4290   10.5630 H   0  0  0  0  0  0  0  0  0  0  0  0
   -6.7800  -46.1030    9.8590 H   0  0  0  0  0  0  0  0  0  0  0  0
    1.9710  -51.7930    7.7350 C   0  0  0  0  0  0  0  0  0  0  0  0
    1.8880  -52.8200    7.2800 H   0  0  0  0  0  0  0  0  0  0  0  0
    3.0570  -51.5320    7.8070 H   0  0  0  0  0  0  0  0  0  0  0  0
    1.5500  -51.8530    8.7800 H   0  0  0  0  0  0  0  0  0  0  0  0
    1.2140  -50.8210    6.9370 N   0  0  0  0  0  0  0  0  0  0  0  0
  1  2  2  0  0  0  0
  2  3  1  0  0  0  0
  2  4  1  0  0  0  0
  4 11  2  0  0  0  0
  4 47  1  0  0  0  0
  5  6  2  0  0  0  0
  5 10  1  0  0  0  0
  5 47  1  0  0  0  0
  6  7  1  0  0  0  0
  6 20  1  0  0  0  0
  7  8  2  0  0  0  0
  7 21  1  0  0  0  0
  8  9  1  0  0  0  0
  8 22  1  0  0  0  0
  9 10  2  0  0  0  0
  9 23  1  0  0  0  0
 10 11  1  0  0  0  0
 11 12  1  0  0  0  0
 12 24  1  0  0  0  0
 12 25  1  0  0  0  0
 12 13  1  0  0  0  0
 13 14  1  0  0  0  0
 13 26  1  0  0  0  0
 13 27  1  0  0  0  0
 14 15  1  0  0  0  0
 14 28  1  0  0  0  0
 14 29  1  0  0  0  0
 15 16  1  0  0  0  0
 16 19  2  0  0  0  0
 16 32  1  0  0  0  0
 17 18  2  0  0  0  0
 17 31  1  0  0  0  0
 17 42  1  0  0  0  0
 18 19  1  0  0  0  0
 18 41  1  0  0  0  0
 19 30  1  0  0  0  0
 31 32  2  0  0  0  0
 31 36  1  0  0  0  0
 32 33  1  0  0  0  0
 33 34  2  0  0  0  0
 33 37  1  0  0  0  0
 34 35  1  0  0  0  0
 34 38  1  0  0  0  0
 35 36  2  0  0  0  0
 35 39  1  0  0  0  0
 36 40  1  0  0  0  0
 43 44  1  0  0  0  0
 43 45  1  0  0  0  0
 43 46  1  0  0  0  0
 43 47  1  0  0  0  0
M  CHG  1   3  -1
M  END
$$$$
