33
 OpenBabel02232411163D
Structure written by MMmdl.
 38 40  0  0  0  0  0  0  0  0999 V2000
    3.8070  -50.1500    5.8910 O   0  0  0  0  0  0  0  0  0  0  0  0
    3.0970  -49.3070    6.4740 C   0  0  0  0  0  0  0  0  0  0  0  0
    3.4880  -48.3330    7.1310 O   0  5  0  0  0  0  0  0  0  0  0  0
    1.5790  -49.5500    6.3640 C   0  0  0  0  0  0  0  0  0  0  0  0
   -0.3330  -50.8010    6.5110 C   0  0  0  0  0  0  0  0  0  0  0  0
   -1.2990  -51.7970    6.7370 C   0  0  0  0  0  0  0  0  0  0  0  0
   -2.6150  -51.4930    6.4220 C   0  0  0  0  0  0  0  0  0  0  0  0
   -2.9700  -50.2300    5.8890 C   0  0  0  0  0  0  0  0  0  0  0  0
   -2.0210  -49.2420    5.6660 C   0  0  0  0  0  0  0  0  0  0  0  0
   -0.6770  -49.5050    5.9800 C   0  0  0  0  0  0  0  0  0  0  0  0
    0.5470  -48.7360    5.9120 C   0  0  0  0  0  0  0  0  0  0  0  0
    0.6100  -47.3250    5.4490 C   0  0  0  0  0  0  0  0  0  0  0  0
    0.5570  -46.3140    6.6100 C   0  0  0  0  0  0  0  0  0  0  0  0
   -0.7550  -46.3510    7.3870 C   0  0  0  0  0  0  0  0  0  0  0  0
   -1.7370  -45.7650    6.4500 O   0  0  0  0  0  0  0  0  0  0  0  0
   -2.9990  -45.5430    6.9040 C   0  0  0  0  0  0  0  0  0  0  0  0
   -3.5220  -46.0260    8.1180 C   0  0  0  0  0  0  0  0  0  0  0  0
   -4.8400  -45.7200    8.4590 C   0  0  0  0  0  0  0  0  0  0  0  0
   -5.6010  -44.9360    7.5930 C   0  0  0  0  0  0  0  0  0  0  0  0
   -5.0960  -44.4500    6.3800 C   0  0  0  0  0  0  0  0  0  0  0  0
   -3.7900  -44.7610    6.0250 C   0  0  0  0  0  0  0  0  0  0  0  0
   -1.0320  -52.7700    7.1490 H   0  0  0  0  0  0  0  0  0  0  0  0
   -3.3990  -52.2320    6.5880 H   0  0  0  0  0  0  0  0  0  0  0  0
   -4.0180  -50.0420    5.6550 H   0  0  0  0  0  0  0  0  0  0  0  0
   -2.3220  -48.2770    5.2570 H   0  0  0  0  0  0  0  0  0  0  0  0
   -0.2670  -47.1240    4.7800 H   0  0  0  0  0  0  0  0  0  0  0  0
    1.5470  -47.1390    4.8700 H   0  0  0  0  0  0  0  0  0  0  0  0
    0.6850  -45.2850    6.2000 H   0  0  0  0  0  0  0  0  0  0  0  0
    1.3840  -46.5370    7.3290 H   0  0  0  0  0  0  0  0  0  0  0  0
   -0.7310  -45.6900    8.2790 H   0  0  0  0  0  0  0  0  0  0  0  0
   -1.0980  -47.3840    7.6100 H   0  0  0  0  0  0  0  0  0  0  0  0
   -2.9400  -46.6500    8.7950 H   0  0  0  0  0  0  0  0  0  0  0  0
   -3.3790  -44.4130    5.0800 H   0  0  0  0  0  0  0  0  0  0  0  0
    1.0530  -50.8030    6.7360 N   0  0  0  0  0  0  0  0  0  0  0  0
    1.5600  -51.6050    7.0920 H   0  0  0  0  0  0  0  0  0  0  0  0
   -5.7220  -43.8460    5.7190 H   0  0  0  0  0  0  0  0  0  0  0  0
   -7.2380  -44.5790    8.0190 Cl  0  0  0  0  0  0  0  0  0  0  0  0
   -5.2720  -46.0970    9.3910 H   0  0  0  0  0  0  0  0  0  0  0  0
  1  2  2  0  0  0  0
  2  3  1  0  0  0  0
  2  4  1  0  0  0  0
  4 11  2  0  0  0  0
  4 34  1  0  0  0  0
  5  6  2  0  0  0  0
  5 10  1  0  0  0  0
  5 34  1  0  0  0  0
  6  7  1  0  0  0  0
  6 22  1  0  0  0  0
  7  8  2  0  0  0  0
  7 23  1  0  0  0  0
  8  9  1  0  0  0  0
  8 24  1  0  0  0  0
  9 10  2  0  0  0  0
  9 25  1  0  0  0  0
 10 11  1  0  0  0  0
 11 12  1  0  0  0  0
 12 26  1  0  0  0  0
 12 27  1  0  0  0  0
 12 13  1  0  0  0  0
 13 14  1  0  0  0  0
 13 28  1  0  0  0  0
 13 29  1  0  0  0  0
 14 15  1  0  0  0  0
 14 30  1  0  0  0  0
 14 31  1  0  0  0  0
 15 16  1  0  0  0  0
 16 17  2  0  0  0  0
 16 21  1  0  0  0  0
 17 18  1  0  0  0  0
 17 32  1  0  0  0  0
 18 19  2  0  0  0  0
 18 38  1  0  0  0  0
 19 20  1  0  0  0  0
 19 37  1  0  0  0  0
 20 21  2  0  0  0  0
 20 36  1  0  0  0  0
 21 33  1  0  0  0  0
 34 35  1  0  0  0  0
M  CHG  1   3  -1
M  END
$$$$
