20
 OpenBabel02232411153D
Structure written by MMmdl.
 49 52  0  0  0  0  0  0  0  0999 V2000
    1.9020   28.8150    6.8570 C   0  0  0  0  0  0  0  0  0  0  0  0
   -1.5840   31.4320    7.9580 C   0  0  0  0  0  0  0  0  0  0  0  0
   -0.1370   25.9500    8.9260 C   0  0  0  0  0  0  0  0  0  0  0  0
   -0.9190   25.2590   10.0500 C   0  0  0  0  0  0  0  0  0  0  0  0
   -0.7430   23.7350    9.8610 C   0  0  0  0  0  0  0  0  0  0  0  0
   -1.3650   22.9450   11.0210 C   0  0  0  0  0  0  0  0  0  0  0  0
   -0.8210   23.4120   12.3800 C   0  0  0  0  0  0  0  0  0  0  0  0
   -1.0470   24.9190   12.5730 C   0  0  0  0  0  0  0  0  0  0  0  0
   -0.4170   25.7270   11.4300 C   0  0  0  0  0  0  0  0  0  0  0  0
    5.4480   25.6110    5.7270 C   0  0  0  0  0  0  0  0  0  0  0  0
    5.3290   24.8520    6.9010 C   0  0  0  0  0  0  0  0  0  0  0  0
    4.4740   25.2820    7.9180 C   0  0  0  0  0  0  0  0  0  0  0  0
    3.7290   26.4560    7.7860 C   0  0  0  0  0  0  0  0  0  0  0  0
    1.1760   27.8680    7.5760 N   0  0  0  0  0  0  0  0  0  0  0  0
   -0.0280   28.2040    8.1020 C   0  0  0  0  0  0  0  0  0  0  0  0
   -0.7280   27.3080    8.8160 O   0  0  0  0  0  0  0  0  0  0  0  0
   -0.5480   29.5130    7.9160 C   0  0  0  0  0  0  0  0  0  0  0  0
   -1.6950   30.1690    8.3770 N   0  0  0  0  0  0  0  0  0  0  0  0
   -0.3670   31.6570    7.2200 N   0  0  0  0  0  0  0  0  0  0  0  0
    0.2910   30.4320    7.1640 C   0  0  0  0  0  0  0  0  0  0  0  0
    1.4900   30.1110    6.5810 N   0  0  0  0  0  0  0  0  0  0  0  0
    3.1510   28.4440    6.3810 N   0  0  0  0  0  0  0  0  0  0  0  0
    3.8380   27.2040    6.6040 C   0  0  0  0  0  0  0  0  0  0  0  0
    4.7170   26.7910    5.5790 C   0  0  0  0  0  0  0  0  0  0  0  0
   -2.2830   32.2420    8.1400 H   0  0  0  0  0  0  0  0  0  0  0  0
    0.9430   26.0370    9.1800 H   0  0  0  0  0  0  0  0  0  0  0  0
   -0.2980   25.4740    7.9380 H   0  0  0  0  0  0  0  0  0  0  0  0
   -2.0040   25.5100    9.9720 H   0  0  0  0  0  0  0  0  0  0  0  0
   -1.2320   23.4240    8.9110 H   0  0  0  0  0  0  0  0  0  0  0  0
    0.3450   23.4900    9.8040 H   0  0  0  0  0  0  0  0  0  0  0  0
   -2.4660   23.0890   11.0120 H   0  0  0  0  0  0  0  0  0  0  0  0
   -1.1440   21.8600   10.8920 H   0  0  0  0  0  0  0  0  0  0  0  0
   -1.3350   22.8520   13.1950 H   0  0  0  0  0  0  0  0  0  0  0  0
    0.2700   23.1940   12.4300 H   0  0  0  0  0  0  0  0  0  0  0  0
   -2.1400   25.1250   12.6290 H   0  0  0  0  0  0  0  0  0  0  0  0
   -0.5820   25.2370   13.5350 H   0  0  0  0  0  0  0  0  0  0  0  0
    0.6920   25.6080   11.4870 H   0  0  0  0  0  0  0  0  0  0  0  0
   -0.6630   26.8050   11.5660 H   0  0  0  0  0  0  0  0  0  0  0  0
    5.9000   23.9310    7.0190 H   0  0  0  0  0  0  0  0  0  0  0  0
    4.3810   24.6920    8.8350 H   0  0  0  0  0  0  0  0  0  0  0  0
    3.0760   26.7680    8.6040 H   0  0  0  0  0  0  0  0  0  0  0  0
   -0.0990   32.5360    6.7540 H   0  0  0  0  0  0  0  0  0  0  0  0
    3.6470   29.0990    5.7310 H   0  0  0  0  0  0  0  0  0  0  0  0
    4.8280   27.3940    4.6760 H   0  0  0  0  0  0  0  0  0  0  0  0
    6.3570   25.1470    4.6130 C   0  0  0  0  0  0  0  0  0  0  0  0
    6.7930   26.0080    4.0490 H   0  0  0  0  0  0  0  0  0  0  0  0
    7.1730   24.4820    4.9860 H   0  0  0  0  0  0  0  0  0  0  0  0
    5.5010   24.3830    3.7260 O   0  0  0  0  0  0  0  0  0  0  0  0
    6.0540   24.0820    2.9540 H   0  0  0  0  0  0  0  0  0  0  0  0
  1 14  2  0  0  0  0
  1 21  1  0  0  0  0
  1 22  1  0  0  0  0
  2 18  2  0  0  0  0
  2 19  1  0  0  0  0
  2 25  1  0  0  0  0
  3  4  1  0  0  0  0
  3 16  1  0  0  0  0
  3 26  1  0  0  0  0
  3 27  1  0  0  0  0
  4  5  1  0  0  0  0
  4  9  1  0  0  0  0
  4 28  1  0  0  0  0
  5  6  1  0  0  0  0
  5 29  1  0  0  0  0
  5 30  1  0  0  0  0
  6  7  1  0  0  0  0
  6 31  1  0  0  0  0
  6 32  1  0  0  0  0
  7  8  1  0  0  0  0
  7 33  1  0  0  0  0
  7 34  1  0  0  0  0
  8  9  1  0  0  0  0
  8 35  1  0  0  0  0
  8 36  1  0  0  0  0
  9 37  1  0  0  0  0
  9 38  1  0  0  0  0
 10 11  2  0  0  0  0
 10 24  1  0  0  0  0
 10 45  1  0  0  0  0
 11 12  1  0  0  0  0
 11 39  1  0  0  0  0
 12 13  2  0  0  0  0
 12 40  1  0  0  0  0
 13 23  1  0  0  0  0
 13 41  1  0  0  0  0
 14 15  1  0  0  0  0
 15 16  1  0  0  0  0
 15 17  2  0  0  0  0
 17 18  1  0  0  0  0
 17 20  1  0  0  0  0
 19 20  1  0  0  0  0
 19 42  1  0  0  0  0
 20 21  2  0  0  0  0
 22 23  1  0  0  0  0
 22 43  1  0  0  0  0
 23 24  2  0  0  0  0
 24 44  1  0  0  0  0
 45 46  1  0  0  0  0
 45 47  1  0  0  0  0
 45 48  1  0  0  0  0
 48 49  1  0  0  0  0
M  END
$$$$
