18652-1
                    3D
 Schrodinger Suite 2022-3.
 55 56  0  0  1  0  0  0  0  0999 V2000
   25.8730    4.3720   30.0600 C   0  0  0  0  0  0  0  0  0  0  0  0
   24.5440    4.7380   29.8930 C   0  0  0  0  0  0  0  0  0  0  0  0
   23.4770    3.9290   30.3860 C   0  0  0  0  0  0  0  0  0  0  0  0
   23.8130    2.8010   31.1150 C   0  0  0  0  0  0  0  0  0  0  0  0
   25.1760    2.4410   31.3120 C   0  0  0  0  0  0  0  0  0  0  0  0
   26.2210    3.2000   30.7590 C   0  0  0  0  0  0  0  0  0  0  0  0
   22.0520    4.2390   30.0340 C   0  0  0  0  0  0  0  0  0  0  0  0
   21.3250    5.2310   30.9290 C   0  0  0  0  0  0  0  0  0  0  0  0
   21.9580    6.4880   31.0220 N   0  0  0  0  0  0  0  0  0  0  0  0
   21.3940    7.6700   31.5600 C   0  0  0  0  0  0  0  0  0  0  0  0
   20.2550    4.9900   31.4460 O   0  0  0  0  0  0  0  0  0  0  0  0
   22.1240    8.7950   31.2140 N   0  0  0  0  0  0  0  0  0  0  0  0
   21.6450   10.0010   31.6040 C   0  0  0  0  0  0  0  0  0  0  0  0
   20.4670   10.1820   32.3910 C   0  0  0  0  0  0  0  0  0  0  0  0
   19.7460    8.9970   32.7490 C   0  0  0  0  0  0  0  0  0  0  0  0
   20.2310    7.7320   32.3220 C   0  0  0  0  0  0  0  0  0  0  0  0
   25.5570    1.3510   32.0440 O   0  0  0  0  0  0  0  0  0  0  0  0
   24.5250    0.4730   32.5790 C   0  0  0  0  0  0  0  0  0  0  0  0
   24.1090    5.8630   29.1930 O   0  0  0  0  0  0  0  0  0  0  0  0
   25.0450    6.9740   29.1080 C   0  0  0  0  0  0  0  0  0  0  0  0
   18.5820    9.0620   33.4740 N   0  0  0  0  0  0  0  0  0  0  0  0
   20.0640   11.4890   32.7350 C   0  0  0  0  0  0  0  0  0  0  0  0
   22.2740   11.1260   31.2130 O   0  0  0  0  0  0  0  0  0  0  0  0
   23.5090   11.0290   30.3670 C   0  0  0  0  0  0  0  0  0  0  0  0
   24.0670   12.4420   30.4820 C   0  0  0  0  0  0  0  0  0  0  0  0
   19.7770   12.5860   32.9830 N   0  0  0  0  0  0  0  0  0  0  0  0
   26.6450    5.0140   29.6260 H   0  0  0  0  0  0  0  0  0  0  0  0
   23.0170    2.1770   31.5260 H   0  0  0  0  0  0  0  0  0  0  0  0
   19.6760    6.8280   32.5780 H   0  0  0  0  0  0  0  0  0  0  0  0
   21.4630    3.2820   30.0290 H   0  0  0  0  0  0  0  0  0  0  0  0
   22.0340    4.6760   28.9930 H   0  0  0  0  0  0  0  0  0  0  0  0
   22.8660    6.6170   30.5130 H   0  0  0  0  0  0  0  0  0  0  0  0
   25.1410   -0.3090   33.0880 H   0  0  0  0  0  0  0  0  0  0  0  0
   23.8960    1.0200   33.3150 H   0  0  0  0  0  0  0  0  0  0  0  0
   23.9310    0.0320   31.7490 H   0  0  0  0  0  0  0  0  0  0  0  0
   24.3780    7.8120   28.8020 H   0  0  0  0  0  0  0  0  0  0  0  0
   25.5140    7.1750   30.0960 H   0  0  0  0  0  0  0  0  0  0  0  0
   25.8050    6.7490   28.3300 H   0  0  0  0  0  0  0  0  0  0  0  0
   18.0840    8.1980   33.7620 H   0  0  0  0  0  0  0  0  0  0  0  0
   18.1870    9.9550   33.7680 H   0  0  0  0  0  0  0  0  0  0  0  0
   24.1790   10.2700   30.8320 H   0  0  0  0  0  0  0  0  0  0  0  0
   23.2940   13.2000   30.2210 H   0  0  0  0  0  0  0  0  0  0  0  0
   24.4400   12.6440   31.5070 H   0  0  0  0  0  0  0  0  0  0  0  0
   24.9180   12.5510   29.7650 H   0  0  0  0  0  0  0  0  0  0  0  0
   27.9130    2.7220   30.8270 S   0  0  0  0  0  0  0  0  0  0  0  0
   28.0760    1.5360   29.9480 O   0  0  0  0  0  0  0  0  0  0  0  0
   28.2630    2.4050   32.2330 O   0  0  0  0  0  0  0  0  0  0  0  0
   28.9000    4.0330   30.2620 C   0  0  0  0  0  0  0  0  0  0  0  0
   28.7600    4.2540   29.1700 H   0  0  0  0  0  0  0  0  0  0  0  0
   28.7130    4.9940   30.8090 H   0  0  0  0  0  0  0  0  0  0  0  0
   29.9940    3.8140   30.3890 H   0  0  0  0  0  0  0  0  0  0  0  0
   23.1150   10.6510   28.9490 C   0  0  0  0  0  0  0  0  0  0  0  0
   22.6210    9.6520   28.9200 H   0  0  0  0  0  0  0  0  0  0  0  0
   22.4270   11.4050   28.5070 H   0  0  0  0  0  0  0  0  0  0  0  0
   24.0320   10.6070   28.3130 H   0  0  0  0  0  0  0  0  0  0  0  0
  1  2  1  0  0  0  0
  1  6  2  0  0  0  0
  1 27  1  0  0  0  0
  2  3  2  0  0  0  0
  2 19  1  0  0  0  0
  3  4  1  0  0  0  0
  3  7  1  0  0  0  0
  4  5  2  0  0  0  0
  4 28  1  0  0  0  0
  5  6  1  0  0  0  0
  5 17  1  0  0  0  0
  6 45  1  0  0  0  0
  7  8  1  0  0  0  0
  7 30  1  0  0  0  0
  7 31  1  0  0  0  0
  8  9  1  0  0  0  0
  8 11  2  0  0  0  0
  9 10  1  0  0  0  0
  9 32  1  0  0  0  0
 10 12  1  0  0  0  0
 10 16  2  0  0  0  0
 12 13  2  0  0  0  0
 13 14  1  0  0  0  0
 13 23  1  0  0  0  0
 14 15  2  0  0  0  0
 14 22  1  0  0  0  0
 15 16  1  0  0  0  0
 15 21  1  0  0  0  0
 16 29  1  0  0  0  0
 17 18  1  0  0  0  0
 18 33  1  0  0  0  0
 18 34  1  0  0  0  0
 18 35  1  0  0  0  0
 19 20  1  0  0  0  0
 20 36  1  0  0  0  0
 20 37  1  0  0  0  0
 20 38  1  0  0  0  0
 21 39  1  0  0  0  0
 21 40  1  0  0  0  0
 22 26  3  0  0  0  0
 23 24  1  0  0  0  0
 24 25  1  0  0  0  0
 24 41  1  0  0  0  0
 24 52  1  0  0  0  0
 25 42  1  0  0  0  0
 25 43  1  0  0  0  0
 25 44  1  0  0  0  0
 45 46  2  0  0  0  0
 45 47  2  0  0  0  0
 45 48  1  0  0  0  0
 48 49  1  0  0  0  0
 48 50  1  0  0  0  0
 48 51  1  0  0  0  0
 52 53  1  0  0  0  0
 52 54  1  0  0  0  0
 52 55  1  0  0  0  0
M  END
$$$$
