CAT-17a
 OpenBabel02232411143D
Structure written by MMmdl.
 43 46  0  0  1  0  0  0  0  0999 V2000
   11.6710   -2.6530    1.3320 C   0  0  0  0  0  0  0  0  0  0  0  0
   12.9800   -2.4430    0.6800 N   0  0  0  0  0  0  0  0  0  0  0  0
   14.1730   -2.4320    1.4030 C   0  0  0  0  0  0  0  0  0  0  0  0
   14.3050   -2.5260    2.7580 N   0  0  0  0  0  0  0  0  0  0  0  0
   15.2600   -2.3540    0.5270 N   0  3  0  0  0  0  0  0  0  0  0  0
   14.8150   -2.6790   -0.8800 C   0  0  1  0  0  0  0  0  0  0  0  0
   15.4170   -1.6580   -1.8190 C   0  0  0  0  0  0  0  0  0  0  0  0
   16.3160   -2.0350   -2.8250 C   0  0  0  0  0  0  0  0  0  0  0  0
   16.8240   -1.0630   -3.6920 C   0  0  0  0  0  0  0  0  0  0  0  0
   16.4720    0.2800   -3.5420 C   0  0  0  0  0  0  0  0  0  0  0  0
   15.6170    0.6730   -2.4980 C   0  0  0  0  0  0  0  0  0  0  0  0
   15.2940    2.0970   -2.2550 C   0  0  0  0  0  0  0  0  0  0  0  0
   15.3190    2.5850   -0.9370 C   0  0  0  0  0  0  0  0  0  0  0  0
   14.9140    3.8950   -0.6820 C   0  0  0  0  0  0  0  0  0  0  0  0
   14.8280    4.4290    0.9520 Cl  0  0  0  0  0  0  0  0  0  0  0  0
   14.5340    4.7620   -1.7090 C   0  0  0  0  0  0  0  0  0  0  0  0
   14.5770    4.2720   -3.0180 C   0  0  0  0  0  0  0  0  0  0  0  0
   14.1530    5.3210   -4.3070 Cl  0  0  0  0  0  0  0  0  0  0  0  0
   14.9350    2.9520   -3.3080 C   0  0  0  0  0  0  0  0  0  0  0  0
   15.0720   -0.3080   -1.6570 C   0  0  0  0  0  0  0  0  0  0  0  0
   15.0390   -4.1380   -1.2500 C   0  0  0  0  0  0  0  0  0  0  0  0
   16.2400   -4.9020   -0.7220 C   0  0  0  0  0  0  0  0  0  0  0  0
   14.8580   -5.2410   -0.2120 C   0  0  0  0  0  0  0  0  0  0  0  0
   13.2600   -2.5190   -0.7700 C   0  0  0  0  0  0  0  0  0  0  0  0
   12.3970   -2.4640   -1.5860 O   0  0  0  0  0  0  0  0  0  0  0  0
   11.5870   -3.7180    1.6840 H   0  0  0  0  0  0  0  0  0  0  0  0
   11.5800   -1.9700    2.2120 H   0  0  0  0  0  0  0  0  0  0  0  0
   10.8500   -2.4280    0.6010 H   0  0  0  0  0  0  0  0  0  0  0  0
   13.5720   -2.1320    3.4000 H   0  0  0  0  0  0  0  0  0  0  0  0
   16.2020   -2.6700    0.8840 H   0  0  0  0  0  0  0  0  0  0  0  0
   16.6230   -3.0770   -2.9290 H   0  0  0  0  0  0  0  0  0  0  0  0
   17.5130   -1.3580   -4.4900 H   0  0  0  0  0  0  0  0  0  0  0  0
   16.8680    1.0220   -4.2400 H   0  0  0  0  0  0  0  0  0  0  0  0
   15.6430    1.9340   -0.1230 H   0  0  0  0  0  0  0  0  0  0  0  0
   14.1890    5.7790   -1.4950 H   0  0  0  0  0  0  0  0  0  0  0  0
   14.9230    2.5850   -4.3400 H   0  0  0  0  0  0  0  0  0  0  0  0
   14.3810   -0.0240   -0.8630 H   0  0  0  0  0  0  0  0  0  0  0  0
   14.7080   -4.3530   -2.2820 H   0  0  0  0  0  0  0  0  0  0  0  0
   16.7690   -5.5780   -1.3920 H   0  0  0  0  0  0  0  0  0  0  0  0
   16.9470   -4.3960   -0.0610 H   0  0  0  0  0  0  0  0  0  0  0  0
   14.5980   -4.9780    0.8210 H   0  0  0  0  0  0  0  0  0  0  0  0
   14.3720   -6.1740   -0.5280 H   0  0  0  0  0  0  0  0  0  0  0  0
   15.2790   -2.4290    3.1650 H   0  0  0  0  0  0  0  0  0  0  0  0
  1  2  1  0  0  0  0
  1 26  1  0  0  0  0
  1 27  1  0  0  0  0
  1 28  1  0  0  0  0
  2  3  1  0  0  0  0
  2 24  1  0  0  0  0
  3  4  1  0  0  0  0
  3  5  2  0  0  0  0
  4 29  1  0  0  0  0
  4 43  1  0  0  0  0
  5  6  1  0  0  0  0
  5 30  1  0  0  0  0
  6  7  1  6  0  0  0
  6 21  1  0  0  0  0
  6 24  1  0  0  0  0
  7  8  2  0  0  0  0
  7 20  1  0  0  0  0
  8  9  1  0  0  0  0
  8 31  1  0  0  0  0
  9 10  2  0  0  0  0
  9 32  1  0  0  0  0
 10 11  1  0  0  0  0
 10 33  1  0  0  0  0
 11 12  1  0  0  0  0
 11 20  2  0  0  0  0
 12 13  2  0  0  0  0
 12 19  1  0  0  0  0
 13 14  1  0  0  0  0
 13 34  1  0  0  0  0
 14 15  1  0  0  0  0
 14 16  2  0  0  0  0
 16 17  1  0  0  0  0
 16 35  1  0  0  0  0
 17 18  1  0  0  0  0
 17 19  2  0  0  0  0
 19 36  1  0  0  0  0
 20 37  1  0  0  0  0
 21 22  1  0  0  0  0
 21 23  1  0  0  0  0
 21 38  1  0  0  0  0
 22 23  1  0  0  0  0
 22 39  1  0  0  0  0
 22 40  1  0  0  0  0
 23 41  1  0  0  0  0
 23 42  1  0  0  0  0
 24 25  2  0  0  0  0
M  CHG  1   5   1
M  END
$$$$
