p38a_2g
 OpenBabel02232411163D
Structure written by MMmdl.
 46 49  0  0  0  0  0  0  0  0999 V2000
   32.5230   39.7460   27.3350 C   0  0  0  0  0  0  0  0  0  0  0  0
   32.4540   39.0960   28.7230 C   0  0  0  0  0  0  0  0  0  0  0  0
   34.7290   38.3010   28.5690 C   0  0  0  0  0  0  0  0  0  0  0  0
   34.9120   38.9070   27.1730 C   0  0  0  0  0  0  0  0  0  0  0  0
   36.8390   35.6940   15.9860 C   0  0  0  0  0  0  0  0  0  0  0  0
   33.7570   39.0360   29.3470 O   0  0  0  0  0  0  0  0  0  0  0  0
   34.4010   35.0450   21.3900 C   0  0  0  0  0  0  0  0  0  0  0  0
   35.8710   35.3890   16.9370 C   0  0  0  0  0  0  0  0  0  0  0  0
   34.0240   39.1130   23.9870 C   0  0  0  0  0  0  0  0  0  0  0  0
   33.5470   38.9970   26.4560 C   0  0  0  0  0  0  0  0  0  0  0  0
   34.6030   37.9150   21.5730 C   0  0  0  0  0  0  0  0  0  0  0  0
   34.9350   37.2630   20.3390 C   0  0  0  0  0  0  0  0  0  0  0  0
   38.0840   36.1570   16.4330 C   0  0  0  0  0  0  0  0  0  0  0  0
   38.3540   36.2840   17.7970 C   0  0  0  0  0  0  0  0  0  0  0  0
   37.3750   35.9920   18.7560 C   0  0  0  0  0  0  0  0  0  0  0  0
   34.2510   37.1410   22.7210 C   0  0  0  0  0  0  0  0  0  0  0  0
   34.6130   39.3280   21.7270 C   0  0  0  0  0  0  0  0  0  0  0  0
   34.8540   35.9120   20.2740 C   0  0  0  0  0  0  0  0  0  0  0  0
   36.1270   35.5500   18.3150 C   0  0  0  0  0  0  0  0  0  0  0  0
   33.8380   34.9610   23.8540 C   0  0  0  0  0  0  0  0  0  0  0  0
   34.6830   34.9150   16.5780 F   0  0  0  0  0  0  0  0  0  0  0  0
   35.0800   35.1330   19.1380 O   0  0  0  0  0  0  0  0  0  0  0  0
   34.3340   39.9390   22.8860 N   0  0  0  0  0  0  0  0  0  0  0  0
   34.2150   33.8500   21.3260 O   0  0  0  0  0  0  0  0  0  0  0  0
   34.1680   35.7440   22.6310 N   0  0  0  0  0  0  0  0  0  0  0  0
   33.9800   37.7330   23.9290 N   0  0  0  0  0  0  0  0  0  0  0  0
   33.6850   39.7380   25.1650 N   0  0  0  0  0  0  0  0  0  0  0  0
   31.5160   39.7050   26.8540 H   0  0  0  0  0  0  0  0  0  0  0  0
   32.8190   40.8170   27.4380 H   0  0  0  0  0  0  0  0  0  0  0  0
   31.8770   39.7290   29.4360 H   0  0  0  0  0  0  0  0  0  0  0  0
   32.0340   38.0650   28.6600 H   0  0  0  0  0  0  0  0  0  0  0  0
   34.4080   37.2350   28.5020 H   0  0  0  0  0  0  0  0  0  0  0  0
   35.6540   38.4100   29.1820 H   0  0  0  0  0  0  0  0  0  0  0  0
   35.3650   39.9240   27.2560 H   0  0  0  0  0  0  0  0  0  0  0  0
   35.6060   38.2610   26.5830 H   0  0  0  0  0  0  0  0  0  0  0  0
   36.6370   35.6030   14.9190 H   0  0  0  0  0  0  0  0  0  0  0  0
   33.1640   37.9590   26.2430 H   0  0  0  0  0  0  0  0  0  0  0  0
   35.2590   37.8810   19.4960 H   0  0  0  0  0  0  0  0  0  0  0  0
   39.3390   36.6330   18.1130 H   0  0  0  0  0  0  0  0  0  0  0  0
   37.5880   36.1290   19.8150 H   0  0  0  0  0  0  0  0  0  0  0  0
   34.8550   39.9690   20.8620 H   0  0  0  0  0  0  0  0  0  0  0  0
   34.5770   35.1940   24.6690 H   0  0  0  0  0  0  0  0  0  0  0  0
   32.8120   35.2320   24.2230 H   0  0  0  0  0  0  0  0  0  0  0  0
   33.8720   33.8620   23.6340 H   0  0  0  0  0  0  0  0  0  0  0  0
   33.7980   40.7680   25.2460 H   0  0  0  0  0  0  0  0  0  0  0  0
   38.8440   36.4450   15.7090 H   0  0  0  0  0  0  0  0  0  0  0  0
  1  2  1  0  0  0  0
  1 10  1  0  0  0  0
  1 28  1  0  0  0  0
  1 29  1  0  0  0  0
  2  6  1  0  0  0  0
  2 30  1  0  0  0  0
  2 31  1  0  0  0  0
  3  4  1  0  0  0  0
  3  6  1  0  0  0  0
  3 32  1  0  0  0  0
  3 33  1  0  0  0  0
  4 10  1  0  0  0  0
  4 34  1  0  0  0  0
  4 35  1  0  0  0  0
  5  8  2  0  0  0  0
  5 13  1  0  0  0  0
  5 36  1  0  0  0  0
  7 18  1  0  0  0  0
  7 24  2  0  0  0  0
  7 25  1  0  0  0  0
  8 19  1  0  0  0  0
  8 21  1  0  0  0  0
  9 23  2  0  0  0  0
  9 26  1  0  0  0  0
  9 27  1  0  0  0  0
 10 27  1  0  0  0  0
 10 37  1  0  0  0  0
 11 12  1  0  0  0  0
 11 16  1  0  0  0  0
 11 17  2  0  0  0  0
 12 18  2  0  0  0  0
 12 38  1  0  0  0  0
 13 14  2  0  0  0  0
 13 46  1  0  0  0  0
 14 15  1  0  0  0  0
 14 39  1  0  0  0  0
 15 19  2  0  0  0  0
 15 40  1  0  0  0  0
 16 25  1  0  0  0  0
 16 26  2  0  0  0  0
 17 23  1  0  0  0  0
 17 41  1  0  0  0  0
 18 22  1  0  0  0  0
 19 22  1  0  0  0  0
 20 25  1  0  0  0  0
 20 42  1  0  0  0  0
 20 43  1  0  0  0  0
 20 44  1  0  0  0  0
 27 45  1  0  0  0  0
M  END
$$$$
