p38a_2m
 OpenBabel02232411163D
Structure written by MMmdl.
 50 54  0  0  0  0  0  0  0  0999 V2000
   36.3830   36.1160   15.7230 C   0  0  0  0  0  0  0  0  0  0  0  0
   34.5950   34.9850   21.1960 C   0  0  0  0  0  0  0  0  0  0  0  0
   35.7720   35.6130   16.8670 C   0  0  0  0  0  0  0  0  0  0  0  0
   33.9090   39.0520   23.7300 C   0  0  0  0  0  0  0  0  0  0  0  0
   34.7850   37.8530   21.4050 C   0  0  0  0  0  0  0  0  0  0  0  0
   35.3130   37.1950   20.2390 C   0  0  0  0  0  0  0  0  0  0  0  0
   37.6770   36.6300   15.8820 C   0  0  0  0  0  0  0  0  0  0  0  0
   38.3610   36.6320   17.1000 C   0  0  0  0  0  0  0  0  0  0  0  0
   37.7100   36.1560   18.2440 C   0  0  0  0  0  0  0  0  0  0  0  0
   34.2990   37.0820   22.5020 C   0  0  0  0  0  0  0  0  0  0  0  0
   34.7460   39.2660   21.5490 C   0  0  0  0  0  0  0  0  0  0  0  0
   35.2500   35.8460   20.1720 C   0  0  0  0  0  0  0  0  0  0  0  0
   36.4160   35.6440   18.1210 C   0  0  0  0  0  0  0  0  0  0  0  0
   34.5610   35.0750   16.8030 F   0  0  0  0  0  0  0  0  0  0  0  0
   35.7410   35.0100   19.1720 O   0  0  0  0  0  0  0  0  0  0  0  0
   34.3290   39.8780   22.6690 N   0  0  0  0  0  0  0  0  0  0  0  0
   34.3510   33.8080   21.0680 O   0  0  0  0  0  0  0  0  0  0  0  0
   34.2370   35.6770   22.4090 N   0  0  0  0  0  0  0  0  0  0  0  0
   33.8670   37.6720   23.6590 N   0  0  0  0  0  0  0  0  0  0  0  0
   33.4470   39.6660   24.8750 N   0  0  0  0  0  0  0  0  0  0  0  0
   35.8750   36.1300   14.7570 H   0  0  0  0  0  0  0  0  0  0  0  0
   35.7590   37.8130   19.4570 H   0  0  0  0  0  0  0  0  0  0  0  0
   39.3770   37.0280   17.1760 H   0  0  0  0  0  0  0  0  0  0  0  0
   38.2100   36.2120   19.2140 H   0  0  0  0  0  0  0  0  0  0  0  0
   35.0690   39.9110   20.7160 H   0  0  0  0  0  0  0  0  0  0  0  0
   33.5970   40.6870   24.9960 H   0  0  0  0  0  0  0  0  0  0  0  0
   38.2640   37.1770   14.8200 F   0  0  0  0  0  0  0  0  0  0  0  0
   32.0090   38.9430   28.3390 C   0  0  0  0  0  0  0  0  0  0  0  0
   32.1640   39.6320   26.9770 C   0  0  0  0  0  0  0  0  0  0  0  0
   33.2370   38.9000   26.1430 C   0  0  0  0  0  0  0  0  0  0  0  0
   34.5570   38.7910   26.9380 C   0  0  0  0  0  0  0  0  0  0  0  0
   34.2910   38.1530   28.3070 C   0  0  0  0  0  0  0  0  0  0  0  0
   33.2700   38.8680   29.0420 O   0  0  0  0  0  0  0  0  0  0  0  0
   31.5970   37.9140   28.2210 H   0  0  0  0  0  0  0  0  0  0  0  0
   31.3880   39.5530   29.0340 H   0  0  0  0  0  0  0  0  0  0  0  0
   32.4610   40.6970   27.1280 H   0  0  0  0  0  0  0  0  0  0  0  0
   31.1910   39.6110   26.4320 H   0  0  0  0  0  0  0  0  0  0  0  0
   32.8670   37.8670   25.8890 H   0  0  0  0  0  0  0  0  0  0  0  0
   35.2840   38.1540   26.3780 H   0  0  0  0  0  0  0  0  0  0  0  0
   35.0070   39.8040   27.0700 H   0  0  0  0  0  0  0  0  0  0  0  0
   33.9760   37.0890   28.1940 H   0  0  0  0  0  0  0  0  0  0  0  0
   35.1760   38.2480   28.9760 H   0  0  0  0  0  0  0  0  0  0  0  0
   33.7590   34.9050   23.5760 C   0  0  0  0  0  0  0  0  0  0  0  0
   34.5330   34.9700   24.8890 C   0  0  0  0  0  0  0  0  0  0  0  0
   34.5510   33.6990   24.0650 C   0  0  0  0  0  0  0  0  0  0  0  0
   32.6530   34.8800   23.6210 H   0  0  0  0  0  0  0  0  0  0  0  0
   35.4440   35.5750   24.9710 H   0  0  0  0  0  0  0  0  0  0  0  0
   33.9480   35.0030   25.8220 H   0  0  0  0  0  0  0  0  0  0  0  0
   35.4880   33.4030   23.5830 H   0  0  0  0  0  0  0  0  0  0  0  0
   33.9800   32.8300   24.4270 H   0  0  0  0  0  0  0  0  0  0  0  0
  1  3  2  0  0  0  0
  1  7  1  0  0  0  0
  1 21  1  0  0  0  0
  2 12  1  0  0  0  0
  2 17  2  0  0  0  0
  2 18  1  0  0  0  0
  3 13  1  0  0  0  0
  3 14  1  0  0  0  0
  4 16  2  0  0  0  0
  4 19  1  0  0  0  0
  4 20  1  0  0  0  0
  5  6  1  0  0  0  0
  5 10  1  0  0  0  0
  5 11  2  0  0  0  0
  6 12  2  0  0  0  0
  6 22  1  0  0  0  0
  7  8  2  0  0  0  0
  7 27  1  0  0  0  0
  8  9  1  0  0  0  0
  8 23  1  0  0  0  0
  9 13  2  0  0  0  0
  9 24  1  0  0  0  0
 10 18  1  0  0  0  0
 10 19  2  0  0  0  0
 11 16  1  0  0  0  0
 11 25  1  0  0  0  0
 12 15  1  0  0  0  0
 13 15  1  0  0  0  0
 18 43  1  0  0  0  0
 20 26  1  0  0  0  0
 20 30  1  0  0  0  0
 28 29  1  0  0  0  0
 28 33  1  0  0  0  0
 28 34  1  0  0  0  0
 28 35  1  0  0  0  0
 29 30  1  0  0  0  0
 29 36  1  0  0  0  0
 29 37  1  0  0  0  0
 30 31  1  0  0  0  0
 30 38  1  0  0  0  0
 31 32  1  0  0  0  0
 31 39  1  0  0  0  0
 31 40  1  0  0  0  0
 32 33  1  0  0  0  0
 32 41  1  0  0  0  0
 32 42  1  0  0  0  0
 43 44  1  0  0  0  0
 43 45  1  0  0  0  0
 43 46  1  0  0  0  0
 44 45  1  0  0  0  0
 44 47  1  0  0  0  0
 44 48  1  0  0  0  0
 45 49  1  0  0  0  0
 45 50  1  0  0  0  0
M  END
$$$$
