CAT-17d
 OpenBabel02232411143D
Structure written by MMmdl.
 42 45  0  0  1  0  0  0  0  0999 V2000
   11.6200   -2.3600    1.2520 C   0  0  0  0  0  0  0  0  0  0  0  0
   12.9680   -2.2890    0.6490 N   0  0  0  0  0  0  0  0  0  0  0  0
   14.1560   -2.3000    1.3710 C   0  0  0  0  0  0  0  0  0  0  0  0
   14.3030   -2.4300    2.7200 N   0  0  0  0  0  0  0  0  0  0  0  0
   15.2490   -2.2100    0.4940 N   0  3  0  0  0  0  0  0  0  0  0  0
   14.8000   -2.5330   -0.9120 C   0  0  1  0  0  0  0  0  0  0  0  0
   15.3870   -1.5210   -1.8730 C   0  0  0  0  0  0  0  0  0  0  0  0
   16.2820   -1.9170   -2.8730 C   0  0  0  0  0  0  0  0  0  0  0  0
   16.7360   -0.9760   -3.8050 C   0  0  0  0  0  0  0  0  0  0  0  0
   16.3160    0.3530   -3.7330 C   0  0  0  0  0  0  0  0  0  0  0  0
   15.4610    0.7690   -2.6970 C   0  0  0  0  0  0  0  0  0  0  0  0
   15.0410    2.1780   -2.5830 C   0  0  0  0  0  0  0  0  0  0  0  0
   14.5090    2.8730   -3.6820 C   0  0  0  0  0  0  0  0  0  0  0  0
   14.0710    4.1870   -3.5100 C   0  0  0  0  0  0  0  0  0  0  0  0
   14.1760    4.7800   -2.2410 C   0  0  0  0  0  0  0  0  0  0  0  0
   14.7290    4.1360   -1.1790 N   0  0  0  0  0  0  0  0  0  0  0  0
   15.1530    2.8590   -1.3500 C   0  0  0  0  0  0  0  0  0  0  0  0
   14.9970   -0.1760   -1.7700 C   0  0  0  0  0  0  0  0  0  0  0  0
   15.0220   -3.9910   -1.2860 C   0  0  0  0  0  0  0  0  0  0  0  0
   16.2560   -4.7400   -0.8120 C   0  0  0  0  0  0  0  0  0  0  0  0
   14.9010   -5.0990   -0.2460 C   0  0  0  0  0  0  0  0  0  0  0  0
   13.2480   -2.3640   -0.8030 C   0  0  0  0  0  0  0  0  0  0  0  0
   12.3830   -2.3030   -1.6150 O   0  0  0  0  0  0  0  0  0  0  0  0
   11.0970   -1.3760    1.1070 H   0  0  0  0  0  0  0  0  0  0  0  0
   11.0350   -3.1800    0.7520 H   0  0  0  0  0  0  0  0  0  0  0  0
   11.6810   -2.5910    2.3470 H   0  0  0  0  0  0  0  0  0  0  0  0
   13.5860   -2.0570    3.3920 H   0  0  0  0  0  0  0  0  0  0  0  0
   16.1780   -2.5690    0.8500 H   0  0  0  0  0  0  0  0  0  0  0  0
   16.6300   -2.9500   -2.9300 H   0  0  0  0  0  0  0  0  0  0  0  0
   17.4260   -1.2890   -4.5950 H   0  0  0  0  0  0  0  0  0  0  0  0
   16.6590    1.0660   -4.4890 H   0  0  0  0  0  0  0  0  0  0  0  0
   14.4270    2.3860   -4.6600 H   0  0  0  0  0  0  0  0  0  0  0  0
   13.6430    4.7430   -4.3510 H   0  0  0  0  0  0  0  0  0  0  0  0
   13.7960    5.7980   -2.0600 H   0  0  0  0  0  0  0  0  0  0  0  0
   15.5950    2.3590   -0.4760 H   0  0  0  0  0  0  0  0  0  0  0  0
   14.3330    0.1290   -0.9600 H   0  0  0  0  0  0  0  0  0  0  0  0
   14.6530   -4.2140   -2.3040 H   0  0  0  0  0  0  0  0  0  0  0  0
   16.9800   -4.2270   -0.1770 H   0  0  0  0  0  0  0  0  0  0  0  0
   16.7630   -5.4040   -1.5110 H   0  0  0  0  0  0  0  0  0  0  0  0
   14.6830   -4.8440    0.7980 H   0  0  0  0  0  0  0  0  0  0  0  0
   14.4150   -6.0380   -0.5460 H   0  0  0  0  0  0  0  0  0  0  0  0
   15.2820   -2.3740    3.1230 H   0  0  0  0  0  0  0  0  0  0  0  0
  1  2  1  0  0  0  0
  1 24  1  0  0  0  0
  1 25  1  0  0  0  0
  1 26  1  0  0  0  0
  2  3  1  0  0  0  0
  2 22  1  0  0  0  0
  3  4  1  0  0  0  0
  3  5  2  0  0  0  0
  4 27  1  0  0  0  0
  4 42  1  0  0  0  0
  5  6  1  0  0  0  0
  5 28  1  0  0  0  0
  6  7  1  6  0  0  0
  6 19  1  0  0  0  0
  6 22  1  0  0  0  0
  7  8  2  0  0  0  0
  7 18  1  0  0  0  0
  8  9  1  0  0  0  0
  8 29  1  0  0  0  0
  9 10  2  0  0  0  0
  9 30  1  0  0  0  0
 10 11  1  0  0  0  0
 10 31  1  0  0  0  0
 11 12  1  0  0  0  0
 11 18  2  0  0  0  0
 12 13  2  0  0  0  0
 12 17  1  0  0  0  0
 13 14  1  0  0  0  0
 13 32  1  0  0  0  0
 14 15  2  0  0  0  0
 14 33  1  0  0  0  0
 15 16  1  0  0  0  0
 15 34  1  0  0  0  0
 16 17  2  0  0  0  0
 17 35  1  0  0  0  0
 18 36  1  0  0  0  0
 19 20  1  0  0  0  0
 19 21  1  0  0  0  0
 19 37  1  0  0  0  0
 20 21  1  0  0  0  0
 20 38  1  0  0  0  0
 20 39  1  0  0  0  0
 21 40  1  0  0  0  0
 21 41  1  0  0  0  0
 22 23  2  0  0  0  0
M  CHG  1   5   1
M  END
$$$$
