p38a_2ff
 OpenBabel02232411163D
Structure written by MMmdl.
 49 52  0  0  1  0  0  0  0  0999 V2000
   38.2720   36.5210   17.1790 C   0  0  0  0  0  0  0  0  0  0  0  0
   34.5380   35.1410   21.2560 C   0  0  0  0  0  0  0  0  0  0  0  0
   37.4800   36.0690   18.2310 C   0  0  0  0  0  0  0  0  0  0  0  0
   34.0860   39.2810   23.7220 C   0  0  0  0  0  0  0  0  0  0  0  0
   34.6430   38.0180   21.3300 C   0  0  0  0  0  0  0  0  0  0  0  0
   35.0220   37.3300   20.1280 C   0  0  0  0  0  0  0  0  0  0  0  0
   37.6330   36.6730   15.9400 C   0  0  0  0  0  0  0  0  0  0  0  0
   36.2880   36.3670   15.7240 C   0  0  0  0  0  0  0  0  0  0  0  0
   35.5170   35.9020   16.7950 C   0  0  0  0  0  0  0  0  0  0  0  0
   34.3010   37.2800   22.5020 C   0  0  0  0  0  0  0  0  0  0  0  0
   34.6080   39.4350   21.4340 C   0  0  0  0  0  0  0  0  0  0  0  0
   35.0080   35.9770   20.1200 C   0  0  0  0  0  0  0  0  0  0  0  0
   36.1190   35.7460   18.0460 C   0  0  0  0  0  0  0  0  0  0  0  0
   33.8530   35.1320   23.6860 C   0  0  0  0  0  0  0  0  0  0  0  0
   38.0040   35.9400   19.4430 F   0  0  0  0  0  0  0  0  0  0  0  0
   35.3870   35.1360   19.0740 O   0  0  0  0  0  0  0  0  0  0  0  0
   34.3400   40.0750   22.5790 N   0  0  0  0  0  0  0  0  0  0  0  0
   34.3960   33.9370   21.2330 O   0  0  0  0  0  0  0  0  0  0  0  0
   34.2360   35.8770   22.4540 N   0  0  0  0  0  0  0  0  0  0  0  0
   34.0220   37.9030   23.6930 N   0  0  0  0  0  0  0  0  0  0  0  0
   33.9420   39.9660   24.9030 N   0  0  0  0  0  0  0  0  0  0  0  0
   39.3240   36.7850   17.3190 H   0  0  0  0  0  0  0  0  0  0  0  0
   35.3230   37.9270   19.2650 H   0  0  0  0  0  0  0  0  0  0  0  0
   35.8260   36.5030   14.7440 H   0  0  0  0  0  0  0  0  0  0  0  0
   34.4550   35.6810   16.6460 H   0  0  0  0  0  0  0  0  0  0  0  0
   34.7980   40.0560   20.5420 H   0  0  0  0  0  0  0  0  0  0  0  0
   34.6050   35.3240   24.4990 H   0  0  0  0  0  0  0  0  0  0  0  0
   32.8470   35.4800   24.0460 H   0  0  0  0  0  0  0  0  0  0  0  0
   33.8070   34.0320   23.4770 H   0  0  0  0  0  0  0  0  0  0  0  0
   33.8990   41.0040   24.8780 H   0  0  0  0  0  0  0  0  0  0  0  0
   38.3370   37.1740   14.9280 F   0  0  0  0  0  0  0  0  0  0  0  0
   34.0790   37.8720   28.1380 C   0  0  0  0  0  0  0  0  0  0  0  0
   34.5130   38.3570   26.7480 C   0  0  0  0  0  0  0  0  0  0  0  0
   33.5090   39.4010   26.2170 C   0  0  2  0  0  0  0  0  0  0  0  0
   32.0700   38.8400   26.1610 C   0  0  0  0  0  0  0  0  0  0  0  0
   31.6450   38.3580   27.5550 C   0  0  0  0  0  0  0  0  0  0  0  0
   32.6450   37.3120   28.0840 C   0  0  2  0  0  0  0  0  0  0  0  0
   34.1370   38.7180   28.8630 H   0  0  0  0  0  0  0  0  0  0  0  0
   34.7780   37.0730   28.4810 H   0  0  0  0  0  0  0  0  0  0  0  0
   34.5650   37.4830   26.0550 H   0  0  0  0  0  0  0  0  0  0  0  0
   35.5270   38.8180   26.8140 H   0  0  0  0  0  0  0  0  0  0  0  0
   33.5180   40.2910   26.9170 H   0  0  0  0  0  0  0  0  0  0  0  0
   31.3730   39.6380   25.8150 H   0  0  0  0  0  0  0  0  0  0  0  0
   32.0200   37.9860   25.4450 H   0  0  0  0  0  0  0  0  0  0  0  0
   31.5990   39.2270   28.2520 H   0  0  0  0  0  0  0  0  0  0  0  0
   30.6260   37.9080   27.4950 H   0  0  0  0  0  0  0  0  0  0  0  0
   32.6020   36.3740   27.4800 H   0  0  0  0  0  0  0  0  0  0  0  0
   32.2420   36.8510   29.3900 O   0  0  0  0  0  0  0  0  0  0  0  0
   32.2530   37.6050   30.0310 H   0  0  0  0  0  0  0  0  0  0  0  0
  1  3  2  0  0  0  0
  1  7  1  0  0  0  0
  1 22  1  0  0  0  0
  2 12  1  0  0  0  0
  2 18  2  0  0  0  0
  2 19  1  0  0  0  0
  3 13  1  0  0  0  0
  3 15  1  0  0  0  0
  4 17  2  0  0  0  0
  4 20  1  0  0  0  0
  4 21  1  0  0  0  0
  5  6  1  0  0  0  0
  5 10  1  0  0  0  0
  5 11  2  0  0  0  0
  6 12  2  0  0  0  0
  6 23  1  0  0  0  0
  7  8  2  0  0  0  0
  7 31  1  0  0  0  0
  8  9  1  0  0  0  0
  8 24  1  0  0  0  0
  9 13  2  0  0  0  0
  9 25  1  0  0  0  0
 10 19  1  0  0  0  0
 10 20  2  0  0  0  0
 11 17  1  0  0  0  0
 11 26  1  0  0  0  0
 12 16  1  0  0  0  0
 13 16  1  0  0  0  0
 14 19  1  0  0  0  0
 14 27  1  0  0  0  0
 14 28  1  0  0  0  0
 14 29  1  0  0  0  0
 21 30  1  0  0  0  0
 21 34  1  0  0  0  0
 32 33  1  0  0  0  0
 32 37  1  0  0  0  0
 32 38  1  0  0  0  0
 32 39  1  0  0  0  0
 33 34  1  0  0  0  0
 33 40  1  0  0  0  0
 33 41  1  0  0  0  0
 34 35  1  0  0  0  0
 34 42  1  6  0  0  0
 35 36  1  0  0  0  0
 35 43  1  0  0  0  0
 35 44  1  0  0  0  0
 36 37  1  0  0  0  0
 36 45  1  0  0  0  0
 36 46  1  0  0  0  0
 37 47  1  1  0  0  0
 37 48  1  0  0  0  0
 48 49  1  0  0  0  0
M  END
$$$$
