p38a_2n
 OpenBabel02232411163D
Structure written by MMmdl.
 53 56  0  0  0  0  0  0  0  0999 V2000
   36.3920   36.1110   15.6970 C   0  0  0  0  0  0  0  0  0  0  0  0
   34.6490   34.9240   21.2340 C   0  0  0  0  0  0  0  0  0  0  0  0
   35.7300   35.6050   16.8110 C   0  0  0  0  0  0  0  0  0  0  0  0
   34.1100   38.9330   23.8810 C   0  0  0  0  0  0  0  0  0  0  0  0
   34.8390   37.7800   21.4850 C   0  0  0  0  0  0  0  0  0  0  0  0
   35.2630   37.1540   20.2610 C   0  0  0  0  0  0  0  0  0  0  0  0
   37.6820   36.6110   15.9110 C   0  0  0  0  0  0  0  0  0  0  0  0
   38.3190   36.5950   17.1550 C   0  0  0  0  0  0  0  0  0  0  0  0
   37.6180   36.1180   18.2680 C   0  0  0  0  0  0  0  0  0  0  0  0
   34.4660   36.9830   22.6090 C   0  0  0  0  0  0  0  0  0  0  0  0
   34.7930   39.1900   21.6530 C   0  0  0  0  0  0  0  0  0  0  0  0
   35.2020   35.8060   20.1690 C   0  0  0  0  0  0  0  0  0  0  0  0
   36.3220   35.6260   18.0910 C   0  0  0  0  0  0  0  0  0  0  0  0
   34.5190   35.0760   16.6960 F   0  0  0  0  0  0  0  0  0  0  0  0
   35.5830   34.9980   19.1000 O   0  0  0  0  0  0  0  0  0  0  0  0
   34.4440   39.7810   22.8060 N   0  0  0  0  0  0  0  0  0  0  0  0
   34.3940   33.7490   21.1070 O   0  0  0  0  0  0  0  0  0  0  0  0
   34.4450   35.5800   22.5020 N   0  0  0  0  0  0  0  0  0  0  0  0
   34.1200   37.5530   23.8080 N   0  0  0  0  0  0  0  0  0  0  0  0
   33.6870   39.5330   25.0460 N   0  0  0  0  0  0  0  0  0  0  0  0
   35.9210   36.1390   14.7130 H   0  0  0  0  0  0  0  0  0  0  0  0
   35.6320   37.7940   19.4570 H   0  0  0  0  0  0  0  0  0  0  0  0
   39.3370   36.9760   17.2700 H   0  0  0  0  0  0  0  0  0  0  0  0
   38.0790   36.1620   19.2580 H   0  0  0  0  0  0  0  0  0  0  0  0
   35.0500   39.8530   20.8090 H   0  0  0  0  0  0  0  0  0  0  0  0
   33.7820   40.5630   25.1530 H   0  0  0  0  0  0  0  0  0  0  0  0
   38.3140   37.1630   14.8770 F   0  0  0  0  0  0  0  0  0  0  0  0
   32.2670   38.8680   28.5280 C   0  0  0  0  0  0  0  0  0  0  0  0
   32.4510   39.5630   27.1730 C   0  0  0  0  0  0  0  0  0  0  0  0
   33.4420   38.7620   26.3020 C   0  0  0  0  0  0  0  0  0  0  0  0
   34.7620   38.5210   27.0670 C   0  0  0  0  0  0  0  0  0  0  0  0
   34.4650   37.8800   28.4280 C   0  0  0  0  0  0  0  0  0  0  0  0
   33.5310   38.6710   29.2000 O   0  0  0  0  0  0  0  0  0  0  0  0
   31.7630   37.8810   28.4030 H   0  0  0  0  0  0  0  0  0  0  0  0
   31.7160   39.5200   29.2440 H   0  0  0  0  0  0  0  0  0  0  0  0
   32.8350   40.5990   27.3340 H   0  0  0  0  0  0  0  0  0  0  0  0
   31.4660   39.6320   26.6510 H   0  0  0  0  0  0  0  0  0  0  0  0
   32.9810   37.7700   26.0300 H   0  0  0  0  0  0  0  0  0  0  0  0
   35.4160   37.8320   26.4780 H   0  0  0  0  0  0  0  0  0  0  0  0
   35.3030   39.4860   27.2080 H   0  0  0  0  0  0  0  0  0  0  0  0
   34.0500   36.8520   28.3000 H   0  0  0  0  0  0  0  0  0  0  0  0
   35.3680   37.8760   29.0800 H   0  0  0  0  0  0  0  0  0  0  0  0
   34.1200   34.7340   23.6970 C   0  0  0  0  0  0  0  0  0  0  0  0
   34.5820   33.7220   23.5350 H   0  0  0  0  0  0  0  0  0  0  0  0
   34.5870   35.2040   24.6080 H   0  0  0  0  0  0  0  0  0  0  0  0
   32.6060   34.5920   23.9080 C   0  0  0  0  0  0  0  0  0  0  0  0
   32.1980   35.5500   24.3270 H   0  0  0  0  0  0  0  0  0  0  0  0
   32.0880   34.3850   22.9430 H   0  0  0  0  0  0  0  0  0  0  0  0
   32.2820   33.4660   24.9020 C   0  0  0  0  0  0  0  0  0  0  0  0
   32.9340   33.5200   25.8050 H   0  0  0  0  0  0  0  0  0  0  0  0
   31.2050   33.5080   25.1940 H   0  0  0  0  0  0  0  0  0  0  0  0
   32.4140   32.1720   24.2870 O   0  0  0  0  0  0  0  0  0  0  0  0
   33.3920   31.9140   24.3100 H   0  0  0  0  0  0  0  0  0  0  0  0
  1  3  2  0  0  0  0
  1  7  1  0  0  0  0
  1 21  1  0  0  0  0
  2 12  1  0  0  0  0
  2 17  2  0  0  0  0
  2 18  1  0  0  0  0
  3 13  1  0  0  0  0
  3 14  1  0  0  0  0
  4 16  2  0  0  0  0
  4 19  1  0  0  0  0
  4 20  1  0  0  0  0
  5  6  1  0  0  0  0
  5 10  1  0  0  0  0
  5 11  2  0  0  0  0
  6 12  2  0  0  0  0
  6 22  1  0  0  0  0
  7  8  2  0  0  0  0
  7 27  1  0  0  0  0
  8  9  1  0  0  0  0
  8 23  1  0  0  0  0
  9 13  2  0  0  0  0
  9 24  1  0  0  0  0
 10 18  1  0  0  0  0
 10 19  2  0  0  0  0
 11 16  1  0  0  0  0
 11 25  1  0  0  0  0
 12 15  1  0  0  0  0
 13 15  1  0  0  0  0
 18 43  1  0  0  0  0
 20 26  1  0  0  0  0
 20 30  1  0  0  0  0
 28 29  1  0  0  0  0
 28 33  1  0  0  0  0
 28 34  1  0  0  0  0
 28 35  1  0  0  0  0
 29 30  1  0  0  0  0
 29 36  1  0  0  0  0
 29 37  1  0  0  0  0
 30 31  1  0  0  0  0
 30 38  1  0  0  0  0
 31 32  1  0  0  0  0
 31 39  1  0  0  0  0
 31 40  1  0  0  0  0
 32 33  1  0  0  0  0
 32 41  1  0  0  0  0
 32 42  1  0  0  0  0
 43 44  1  0  0  0  0
 43 45  1  0  0  0  0
 43 46  1  0  0  0  0
 46 47  1  0  0  0  0
 46 48  1  0  0  0  0
 46 49  1  0  0  0  0
 49 50  1  0  0  0  0
 49 51  1  0  0  0  0
 49 52  1  0  0  0  0
 52 53  1  0  0  0  0
M  END
$$$$
