CAT-13d
 OpenBabel02232411143D
Structure written by MMmdl.
 43 46  0  0  1  0  0  0  0  0999 V2000
   11.6320   -2.3280    1.2450 C   0  0  0  0  0  0  0  0  0  0  0  0
   12.9810   -2.3240    0.6420 N   0  0  0  0  0  0  0  0  0  0  0  0
   14.1660   -2.3260    1.3710 C   0  0  0  0  0  0  0  0  0  0  0  0
   14.3040   -2.4290    2.7230 N   0  0  0  0  0  0  0  0  0  0  0  0
   15.2630   -2.2690    0.4990 N   0  3  0  0  0  0  0  0  0  0  0  0
   14.8200   -2.6010   -0.9070 C   0  0  1  0  0  0  0  0  0  0  0  0
   15.4260   -1.5990   -1.8650 C   0  0  0  0  0  0  0  0  0  0  0  0
   16.2900   -2.0040   -2.8900 C   0  0  0  0  0  0  0  0  0  0  0  0
   16.7740   -1.0550   -3.7960 C   0  0  0  0  0  0  0  0  0  0  0  0
   16.4270    0.2920   -3.6720 C   0  0  0  0  0  0  0  0  0  0  0  0
   15.6150    0.7150   -2.6060 C   0  0  0  0  0  0  0  0  0  0  0  0
   15.3060    2.1480   -2.3960 C   0  0  0  0  0  0  0  0  0  0  0  0
   15.4520    2.7030   -1.1140 C   0  0  0  0  0  0  0  0  0  0  0  0
   15.0960    4.0320   -0.8700 C   0  0  0  0  0  0  0  0  0  0  0  0
   14.6090    4.8300   -1.9080 C   0  0  0  0  0  0  0  0  0  0  0  0
   14.5230    4.2820   -3.1920 C   0  0  0  0  0  0  0  0  0  0  0  0
   13.9880    5.2820   -4.4840 Cl  0  0  0  0  0  0  0  0  0  0  0  0
   14.8540    2.9510   -3.4550 C   0  0  0  0  0  0  0  0  0  0  0  0
   15.1020   -0.2410   -1.7170 C   0  0  0  0  0  0  0  0  0  0  0  0
   15.0270   -4.0670   -1.2620 C   0  0  0  0  0  0  0  0  0  0  0  0
   16.2320   -4.8320   -0.7450 C   0  0  0  0  0  0  0  0  0  0  0  0
   14.8560   -5.1590   -0.2110 C   0  0  0  0  0  0  0  0  0  0  0  0
   13.2690   -2.4120   -0.8090 C   0  0  0  0  0  0  0  0  0  0  0  0
   12.4100   -2.3520   -1.6270 O   0  0  0  0  0  0  0  0  0  0  0  0
   10.9920   -3.0820    0.7100 H   0  0  0  0  0  0  0  0  0  0  0  0
   11.6800   -2.6140    2.3290 H   0  0  0  0  0  0  0  0  0  0  0  0
   11.1790   -1.3060    1.1480 H   0  0  0  0  0  0  0  0  0  0  0  0
   13.5840   -2.0460    3.3840 H   0  0  0  0  0  0  0  0  0  0  0  0
   16.1910   -2.6170    0.8660 H   0  0  0  0  0  0  0  0  0  0  0  0
   16.5900   -3.0500   -2.9800 H   0  0  0  0  0  0  0  0  0  0  0  0
   17.4380   -1.3710   -4.6070 H   0  0  0  0  0  0  0  0  0  0  0  0
   16.7980    1.0140   -4.4050 H   0  0  0  0  0  0  0  0  0  0  0  0
   15.8390    2.0880   -0.2990 H   0  0  0  0  0  0  0  0  0  0  0  0
   15.1900    4.4360    0.1420 H   0  0  0  0  0  0  0  0  0  0  0  0
   14.2830    5.8540   -1.7110 H   0  0  0  0  0  0  0  0  0  0  0  0
   14.7540    2.5360   -4.4630 H   0  0  0  0  0  0  0  0  0  0  0  0
   14.4550    0.0690   -0.8960 H   0  0  0  0  0  0  0  0  0  0  0  0
   14.6780   -4.2930   -2.2860 H   0  0  0  0  0  0  0  0  0  0  0  0
   16.7470   -5.5180   -1.4160 H   0  0  0  0  0  0  0  0  0  0  0  0
   16.9510   -4.3230   -0.0990 H   0  0  0  0  0  0  0  0  0  0  0  0
   14.6150   -4.8860    0.8240 H   0  0  0  0  0  0  0  0  0  0  0  0
   14.3620   -6.0930   -0.5120 H   0  0  0  0  0  0  0  0  0  0  0  0
   15.2810   -2.3670    3.1310 H   0  0  0  0  0  0  0  0  0  0  0  0
  1  2  1  0  0  0  0
  1 25  1  0  0  0  0
  1 26  1  0  0  0  0
  1 27  1  0  0  0  0
  2  3  1  0  0  0  0
  2 23  1  0  0  0  0
  3  4  1  0  0  0  0
  3  5  2  0  0  0  0
  4 28  1  0  0  0  0
  4 43  1  0  0  0  0
  5  6  1  0  0  0  0
  5 29  1  0  0  0  0
  6  7  1  6  0  0  0
  6 20  1  0  0  0  0
  6 23  1  0  0  0  0
  7  8  2  0  0  0  0
  7 19  1  0  0  0  0
  8  9  1  0  0  0  0
  8 30  1  0  0  0  0
  9 10  2  0  0  0  0
  9 31  1  0  0  0  0
 10 11  1  0  0  0  0
 10 32  1  0  0  0  0
 11 12  1  0  0  0  0
 11 19  2  0  0  0  0
 12 13  2  0  0  0  0
 12 18  1  0  0  0  0
 13 14  1  0  0  0  0
 13 33  1  0  0  0  0
 14 15  2  0  0  0  0
 14 34  1  0  0  0  0
 15 16  1  0  0  0  0
 15 35  1  0  0  0  0
 16 18  2  0  0  0  0
 16 17  1  0  0  0  0
 18 36  1  0  0  0  0
 19 37  1  0  0  0  0
 20 21  1  0  0  0  0
 20 22  1  0  0  0  0
 20 38  1  0  0  0  0
 21 22  1  0  0  0  0
 21 39  1  0  0  0  0
 21 40  1  0  0  0  0
 22 41  1  0  0  0  0
 22 42  1  0  0  0  0
 23 24  2  0  0  0  0
M  CHG  1   5   1
M  END
$$$$
