p38a_3flz
 OpenBabel02232411163D
Structure written by MMmdl.
 46 49  0  0  0  0  0  0  0  0999 V2000
   35.0510   35.2170   19.0830 O   0  0  0  0  0  0  0  0  0  0  0  0
   34.9210   37.3250   20.3140 C   0  0  0  0  0  0  0  0  0  0  0  0
   34.2050   37.1740   22.6850 C   0  0  0  0  0  0  0  0  0  0  0  0
   34.5910   37.9610   21.5580 C   0  0  0  0  0  0  0  0  0  0  0  0
   34.6250   39.3700   21.7410 C   0  0  0  0  0  0  0  0  0  0  0  0
   34.0090   39.1250   23.9920 C   0  0  0  0  0  0  0  0  0  0  0  0
   34.8360   35.9750   20.2290 C   0  0  0  0  0  0  0  0  0  0  0  0
   36.0890   35.6400   18.2340 C   0  0  0  0  0  0  0  0  0  0  0  0
   33.6960   34.9910   23.7680 C   0  0  0  0  0  0  0  0  0  0  0  0
   34.6820   38.3750   27.0900 C   0  0  0  0  0  0  0  0  0  0  0  0
   35.7690   35.6040   16.8720 C   0  0  0  0  0  0  0  0  0  0  0  0
   38.0670   36.2220   16.4000 C   0  0  0  0  0  0  0  0  0  0  0  0
   36.7800   35.9020   15.9550 C   0  0  0  0  0  0  0  0  0  0  0  0
   38.3590   36.2440   17.7680 C   0  0  0  0  0  0  0  0  0  0  0  0
   34.2320   33.8930   21.2670 O   0  0  0  0  0  0  0  0  0  0  0  0
   34.3820   35.0940   21.3340 C   0  0  0  0  0  0  0  0  0  0  0  0
   37.3690   35.9480   18.7080 C   0  0  0  0  0  0  0  0  0  0  0  0
   34.3480   39.9660   22.9100 N   0  0  0  0  0  0  0  0  0  0  0  0
   34.1020   35.7800   22.5710 N   0  0  0  0  0  0  0  0  0  0  0  0
   33.9240   37.7480   23.8990 N   0  0  0  0  0  0  0  0  0  0  0  0
   33.7150   39.7190   25.1950 N   0  0  0  0  0  0  0  0  0  0  0  0
   33.4010   38.9190   26.4230 C   0  0  0  0  0  0  0  0  0  0  0  0
   32.5730   39.7820   27.3970 C   0  0  0  0  0  0  0  0  0  0  0  0
   33.4190   40.7180   28.2690 C   0  0  0  0  0  0  0  0  0  0  0  0
   34.5420   40.0470   28.8770 O   0  0  0  0  0  0  0  0  0  0  0  0
   35.4200   39.4430   27.8970 C   0  0  0  0  0  0  0  0  0  0  0  0
   35.2400   37.9530   19.4770 H   0  0  0  0  0  0  0  0  0  0  0  0
   34.8830   40.0230   20.8910 H   0  0  0  0  0  0  0  0  0  0  0  0
   33.6930   33.8960   23.5310 H   0  0  0  0  0  0  0  0  0  0  0  0
   34.4110   35.1820   24.6140 H   0  0  0  0  0  0  0  0  0  0  0  0
   32.6680   35.3000   24.1010 H   0  0  0  0  0  0  0  0  0  0  0  0
   34.3790   37.5340   27.7650 H   0  0  0  0  0  0  0  0  0  0  0  0
   35.3670   37.9510   26.3170 H   0  0  0  0  0  0  0  0  0  0  0  0
   34.7540   35.3950   16.5300 H   0  0  0  0  0  0  0  0  0  0  0  0
   38.8380   36.4940   15.6840 H   0  0  0  0  0  0  0  0  0  0  0  0
   36.5540   35.9100   14.8880 H   0  0  0  0  0  0  0  0  0  0  0  0
   39.3650   36.5130   18.0940 H   0  0  0  0  0  0  0  0  0  0  0  0
   37.5890   35.9890   19.7730 H   0  0  0  0  0  0  0  0  0  0  0  0
   33.7970   40.7470   25.2970 H   0  0  0  0  0  0  0  0  0  0  0  0
   32.7640   38.0400   26.1050 H   0  0  0  0  0  0  0  0  0  0  0  0
   31.8390   40.3970   26.8190 H   0  0  0  0  0  0  0  0  0  0  0  0
   31.9930   39.0840   28.0530 H   0  0  0  0  0  0  0  0  0  0  0  0
   33.8040   41.5750   27.6720 H   0  0  0  0  0  0  0  0  0  0  0  0
   32.8400   41.0710   29.1530 H   0  0  0  0  0  0  0  0  0  0  0  0
   36.2140   38.9970   28.5370 H   0  0  0  0  0  0  0  0  0  0  0  0
   35.8210   40.2430   27.2340 H   0  0  0  0  0  0  0  0  0  0  0  0
  1  7  1  0  0  0  0
  1  8  1  0  0  0  0
  2  4  1  0  0  0  0
  2  7  2  0  0  0  0
  2 27  1  0  0  0  0
  3  4  2  0  0  0  0
  3 19  1  0  0  0  0
  3 20  1  0  0  0  0
  4  5  1  0  0  0  0
  5 18  2  0  0  0  0
  5 28  1  0  0  0  0
  6 18  1  0  0  0  0
  6 20  2  0  0  0  0
  6 21  1  0  0  0  0
  7 16  1  0  0  0  0
  8 11  2  0  0  0  0
  8 17  1  0  0  0  0
  9 19  1  0  0  0  0
  9 29  1  0  0  0  0
  9 30  1  0  0  0  0
  9 31  1  0  0  0  0
 10 22  1  0  0  0  0
 10 26  1  0  0  0  0
 10 32  1  0  0  0  0
 10 33  1  0  0  0  0
 11 13  1  0  0  0  0
 11 34  1  0  0  0  0
 12 13  2  0  0  0  0
 12 14  1  0  0  0  0
 12 35  1  0  0  0  0
 13 36  1  0  0  0  0
 14 17  2  0  0  0  0
 14 37  1  0  0  0  0
 15 16  2  0  0  0  0
 16 19  1  0  0  0  0
 17 38  1  0  0  0  0
 21 22  1  0  0  0  0
 21 39  1  0  0  0  0
 22 23  1  0  0  0  0
 22 40  1  0  0  0  0
 23 24  1  0  0  0  0
 23 41  1  0  0  0  0
 23 42  1  0  0  0  0
 24 25  1  0  0  0  0
 24 43  1  0  0  0  0
 24 44  1  0  0  0  0
 25 26  1  0  0  0  0
 26 45  1  0  0  0  0
 26 46  1  0  0  0  0
M  END
$$$$
