2n
                    3D
 Schrodinger Suite 2022-3.
 53 56  0  0  1  0  0  0  0  0999 V2000
   27.1330    8.9860   30.4680 C   0  0  0  0  0  0  0  0  0  0  0  0
   28.4970    9.5710   30.8550 C   0  0  0  0  0  0  0  0  0  0  0  0
   28.5690    8.2780   32.8960 C   0  0  0  0  0  0  0  0  0  0  0  0
   27.2260    7.6080   32.5860 C   0  0  0  0  0  0  0  0  0  0  0  0
   15.8880   10.4930   31.6690 C   0  0  0  0  0  0  0  0  0  0  0  0
   29.2580    8.6680   31.6880 O   0  0  0  0  0  0  0  0  0  0  0  0
   21.2640   12.5520   31.3560 C   0  0  0  0  0  0  0  0  0  0  0  0
   17.1770   11.0040   31.7950 C   0  0  0  0  0  0  0  0  0  0  0  0
   23.9260    8.5220   31.1070 C   0  0  0  0  0  0  0  0  0  0  0  0
   26.3610    8.5650   31.7380 C   0  0  0  0  0  0  0  0  0  0  0  0
   21.4830    9.7430   30.7710 C   0  0  0  0  0  0  0  0  0  0  0  0
   20.2000   10.3840   30.6770 C   0  0  0  0  0  0  0  0  0  0  0  0
   15.2050   10.7930   30.4840 C   0  0  0  0  0  0  0  0  0  0  0  0
   15.7540   11.5630   29.4570 C   0  0  0  0  0  0  0  0  0  0  0  0
   17.0440   12.0810   29.6140 C   0  0  0  0  0  0  0  0  0  0  0  0
   22.6110   10.4670   31.2620 C   0  0  0  0  0  0  0  0  0  0  0  0
   21.6930    8.3870   30.4080 C   0  0  0  0  0  0  0  0  0  0  0  0
   20.1040   11.6950   30.9890 C   0  0  0  0  0  0  0  0  0  0  0  0
   17.7470   11.8150   30.7920 C   0  0  0  0  0  0  0  0  0  0  0  0
   23.6710   12.5870   32.1200 C   0  0  0  0  0  0  0  0  0  0  0  0
   17.8960   10.7160   32.8730 F   0  0  0  0  0  0  0  0  0  0  0  0
   13.9820   10.2940   30.3200 F   0  0  0  0  0  0  0  0  0  0  0  0
   18.9570   12.4840   31.0080 O   0  0  0  0  0  0  0  0  0  0  0  0
   22.8710    7.7640   30.5600 N   0  0  0  0  0  0  0  0  0  0  0  0
   21.2390   13.7550   31.4890 O   0  0  0  0  0  0  0  0  0  0  0  0
   22.4870   11.8280   31.5950 N   0  0  0  0  0  0  0  0  0  0  0  0
   23.8310    9.8630   31.4230 N   0  0  0  0  0  0  0  0  0  0  0  0
   25.0970    7.8520   31.3850 N   0  0  0  0  0  0  0  0  0  0  0  0
   15.2030   11.7520   28.5350 H   0  0  0  0  0  0  0  0  0  0  0  0
   17.4940   12.6820   28.8160 H   0  0  0  0  0  0  0  0  0  0  0  0
   15.4510    9.8610   32.4430 H   0  0  0  0  0  0  0  0  0  0  0  0
   19.3470    9.7820   30.3600 H   0  0  0  0  0  0  0  0  0  0  0  0
   20.8670    7.8000   29.9720 H   0  0  0  0  0  0  0  0  0  0  0  0
   27.2720    8.0980   29.8090 H   0  0  0  0  0  0  0  0  0  0  0  0
   26.5540    9.7580   29.9080 H   0  0  0  0  0  0  0  0  0  0  0  0
   28.3750   10.5400   31.3920 H   0  0  0  0  0  0  0  0  0  0  0  0
   29.1600    9.6790   29.9680 H   0  0  0  0  0  0  0  0  0  0  0  0
   29.2830    7.5560   33.3560 H   0  0  0  0  0  0  0  0  0  0  0  0
   28.4270    9.1780   33.5390 H   0  0  0  0  0  0  0  0  0  0  0  0
   26.7010    7.3610   33.5410 H   0  0  0  0  0  0  0  0  0  0  0  0
   27.3980    6.6540   32.0290 H   0  0  0  0  0  0  0  0  0  0  0  0
   26.1050    9.4770   32.3460 H   0  0  0  0  0  0  0  0  0  0  0  0
   23.2840   13.4330   32.7500 H   0  0  0  0  0  0  0  0  0  0  0  0
   24.2850   11.8960   32.7630 H   0  0  0  0  0  0  0  0  0  0  0  0
   25.2240    6.8900   31.0080 H   0  0  0  0  0  0  0  0  0  0  0  0
   24.5420   13.1370   30.9820 C   0  0  0  0  0  0  0  0  0  0  0  0
   25.0620   12.2840   30.4700 H   0  0  0  0  0  0  0  0  0  0  0  0
   23.9160   13.6690   30.2270 H   0  0  0  0  0  0  0  0  0  0  0  0
   25.6200   14.1020   31.4980 C   0  0  0  0  0  0  0  0  0  0  0  0
   26.4060   14.2450   30.7160 H   0  0  0  0  0  0  0  0  0  0  0  0
   26.0760   13.7420   32.4490 H   0  0  0  0  0  0  0  0  0  0  0  0
   25.0930   15.4280   31.6780 O   0  0  0  0  0  0  0  0  0  0  0  0
   24.6680   15.4970   32.5860 H   0  0  0  0  0  0  0  0  0  0  0  0
  1  2  1  0  0  0  0
  1 10  1  0  0  0  0
  1 34  1  0  0  0  0
  1 35  1  0  0  0  0
  2  6  1  0  0  0  0
  2 36  1  0  0  0  0
  2 37  1  0  0  0  0
  3  4  1  0  0  0  0
  3  6  1  0  0  0  0
  3 38  1  0  0  0  0
  3 39  1  0  0  0  0
  4 10  1  0  0  0  0
  4 40  1  0  0  0  0
  4 41  1  0  0  0  0
  5  8  1  0  0  0  0
  5 13  2  0  0  0  0
  5 31  1  0  0  0  0
  7 18  1  0  0  0  0
  7 25  2  0  0  0  0
  7 26  1  0  0  0  0
  8 19  2  0  0  0  0
  8 21  1  0  0  0  0
  9 24  1  0  0  0  0
  9 27  2  0  0  0  0
  9 28  1  0  0  0  0
 10 28  1  0  0  0  0
 10 42  1  0  0  0  0
 11 12  1  0  0  0  0
 11 16  2  0  0  0  0
 11 17  1  0  0  0  0
 12 18  2  0  0  0  0
 12 32  1  0  0  0  0
 13 14  1  0  0  0  0
 13 22  1  0  0  0  0
 14 15  2  0  0  0  0
 14 29  1  0  0  0  0
 15 19  1  0  0  0  0
 15 30  1  0  0  0  0
 16 26  1  0  0  0  0
 16 27  1  0  0  0  0
 17 24  2  0  0  0  0
 17 33  1  0  0  0  0
 18 23  1  0  0  0  0
 19 23  1  0  0  0  0
 20 26  1  0  0  0  0
 20 43  1  0  0  0  0
 20 44  1  0  0  0  0
 20 46  1  0  0  0  0
 28 45  1  0  0  0  0
 46 47  1  0  0  0  0
 46 48  1  0  0  0  0
 46 49  1  0  0  0  0
 49 50  1  0  0  0  0
 49 51  1  0  0  0  0
 49 52  1  0  0  0  0
 52 53  1  0  0  0  0
M  END
$$$$
