23468
                    3D
 Schrodinger Suite 2022-3.
 37 38  0  0  1  0  0  0  0  0999 V2000
   43.7230   13.9120   16.7580 S   0  0  0  0  0  0  0  0  0  0  0  0
   43.6240   15.2370   15.6210 C   0  0  0  0  0  0  0  0  0  0  0  0
   42.7470   14.9030   14.6190 C   0  0  0  0  0  0  0  0  0  0  0  0
   42.1180   13.6160   14.8150 C   0  0  0  0  0  0  0  0  0  0  0  0
   42.5330   12.9410   15.9330 C   0  0  0  0  0  0  0  0  0  0  0  0
   44.4150   16.5240   15.8710 C   0  0  0  0  0  0  0  0  0  0  0  0
   45.2590   16.4520   16.7910 O   0  0  0  0  0  0  0  0  0  0  0  0
   44.1690   17.5200   15.1900 O   0  5  0  0  0  0  0  0  0  0  0  0
   42.1340   11.6200   16.3750 C   0  0  0  0  0  0  0  0  0  0  0  0
   40.7990   11.2160   16.2010 C   0  0  0  0  0  0  0  0  0  0  0  0
   40.4390    9.8670   16.3580 C   0  0  0  0  0  0  0  0  0  0  0  0
   41.3630    8.9350   16.8460 C   0  0  0  0  0  0  0  0  0  0  0  0
   42.6580    9.3780   17.1490 C   0  0  0  0  0  0  0  0  0  0  0  0
   43.0570   10.6900   16.8980 C   0  0  0  0  0  0  0  0  0  0  0  0
   40.8350   12.9210   13.5820 Br  0  0  0  0  0  0  0  0  0  0  0  0
   42.6070   15.6590   13.5020 O   0  0  0  0  0  0  0  0  0  0  0  0
   41.2470   16.1390   13.2520 C   0  0  0  0  0  0  0  0  0  0  0  0
   41.4990   17.5910   12.7410 C   0  0  0  0  0  0  0  0  0  0  0  0
   40.5060   18.3480   12.7870 O   0  5  0  0  0  0  0  0  0  0  0  0
   42.6190   17.8790   12.3040 O   0  0  0  0  0  0  0  0  0  0  0  0
   39.1160    9.5050   15.9100 N   0  0  0  0  0  0  0  0  0  0  0  0
   40.0260   11.9380   15.9240 H   0  0  0  0  0  0  0  0  0  0  0  0
   41.1050    7.8850   16.9760 H   0  0  0  0  0  0  0  0  0  0  0  0
   43.3720    8.6630   17.5650 H   0  0  0  0  0  0  0  0  0  0  0  0
   44.0930   10.9730   17.0950 H   0  0  0  0  0  0  0  0  0  0  0  0
   40.6180   16.1050   14.1660 H   0  0  0  0  0  0  0  0  0  0  0  0
   40.8180   15.4940   12.4590 H   0  0  0  0  0  0  0  0  0  0  0  0
   38.7560   10.0650   15.1040 H   0  0  0  0  0  0  0  0  0  0  0  0
   38.3210    8.4630   16.3950 C   0  0  0  0  0  0  0  0  0  0  0  0
   38.6130    7.8510   17.4140 O   0  0  0  0  0  0  0  0  0  0  0  0
   37.0700    8.1750   15.5770 C   0  0  0  0  0  0  0  0  0  0  0  0
   36.2670    7.7900   16.2570 H   0  0  0  0  0  0  0  0  0  0  0  0
   36.6710    9.0960   15.0800 H   0  0  0  0  0  0  0  0  0  0  0  0
   37.3790    7.1260   14.5090 C   0  0  0  0  0  0  0  0  0  0  0  0
   36.4470    6.8820   13.9450 H   0  0  0  0  0  0  0  0  0  0  0  0
   38.1380    7.5080   13.7880 H   0  0  0  0  0  0  0  0  0  0  0  0
   37.7590    6.1850   14.9690 H   0  0  0  0  0  0  0  0  0  0  0  0
  1  2  1  0  0  0  0
  1  5  1  0  0  0  0
  2  3  2  0  0  0  0
  2  6  1  0  0  0  0
  3  4  1  0  0  0  0
  3 16  1  0  0  0  0
  4  5  2  0  0  0  0
  4 15  1  0  0  0  0
  5  9  1  0  0  0  0
  6  7  2  0  0  0  0
  6  8  1  0  0  0  0
  9 10  1  0  0  0  0
  9 14  2  0  0  0  0
 10 11  2  0  0  0  0
 10 22  1  0  0  0  0
 11 12  1  0  0  0  0
 11 21  1  0  0  0  0
 12 13  2  0  0  0  0
 12 23  1  0  0  0  0
 13 14  1  0  0  0  0
 13 24  1  0  0  0  0
 14 25  1  0  0  0  0
 16 17  1  0  0  0  0
 17 18  1  0  0  0  0
 17 26  1  0  0  0  0
 17 27  1  0  0  0  0
 18 19  1  0  0  0  0
 18 20  2  0  0  0  0
 21 28  1  0  0  0  0
 21 29  1  0  0  0  0
 29 30  2  0  0  0  0
 29 31  1  0  0  0  0
 31 32  1  0  0  0  0
 31 33  1  0  0  0  0
 31 34  1  0  0  0  0
 34 35  1  0  0  0  0
 34 36  1  0  0  0  0
 34 37  1  0  0  0  0
M  CHG  2   8  -1  19  -1
M  END
$$$$
