44
 OpenBabel02232411163D
Structure written by MMmdl.
 44 47  0  0  0  0  0  0  0  0999 V2000
    3.4140  -48.2190    7.0810 O   0  0  0  0  0  0  0  0  0  0  0  0
    3.0370  -49.2010    6.4280 C   0  0  0  0  0  0  0  0  0  0  0  0
    3.7580  -50.0340    5.8450 O   0  5  0  0  0  0  0  0  0  0  0  0
    1.5230  -49.4770    6.3280 C   0  0  0  0  0  0  0  0  0  0  0  0
   -0.3570  -50.7750    6.5070 C   0  0  0  0  0  0  0  0  0  0  0  0
   -1.2970  -51.7900    6.7530 C   0  0  0  0  0  0  0  0  0  0  0  0
   -2.6220  -51.5240    6.4420 C   0  0  0  0  0  0  0  0  0  0  0  0
   -3.0130  -50.2770    5.8960 C   0  0  0  0  0  0  0  0  0  0  0  0
   -2.0900  -49.2700    5.6530 C   0  0  0  0  0  0  0  0  0  0  0  0
   -0.7370  -49.4980    5.9580 C   0  0  0  0  0  0  0  0  0  0  0  0
    0.4670  -48.6990    5.8670 C   0  0  0  0  0  0  0  0  0  0  0  0
    0.4790  -47.2950    5.3760 C   0  0  0  0  0  0  0  0  0  0  0  0
    0.4540  -46.2630    6.5180 C   0  0  0  0  0  0  0  0  0  0  0  0
   -0.6910  -46.4590    7.5010 C   0  0  0  0  0  0  0  0  0  0  0  0
   -1.9070  -45.9620    6.8130 O   0  0  0  0  0  0  0  0  0  0  0  0
   -3.0590  -45.9850    7.5350 C   0  0  0  0  0  0  0  0  0  0  0  0
   -5.4190  -45.6460    8.9730 C   0  0  0  0  0  0  0  0  0  0  0  0
   -4.4650  -46.5210    9.4310 C   0  0  0  0  0  0  0  0  0  0  0  0
   -3.2650  -46.6980    8.7040 C   0  0  0  0  0  0  0  0  0  0  0  0
   -1.0030  -52.7510    7.1750 H   0  0  0  0  0  0  0  0  0  0  0  0
   -3.3860  -52.2820    6.6210 H   0  0  0  0  0  0  0  0  0  0  0  0
   -4.0680  -50.1160    5.6670 H   0  0  0  0  0  0  0  0  0  0  0  0
   -2.4170  -48.3160    5.2390 H   0  0  0  0  0  0  0  0  0  0  0  0
   -0.4310  -47.1330    4.7420 H   0  0  0  0  0  0  0  0  0  0  0  0
    1.3850  -47.1000    4.7540 H   0  0  0  0  0  0  0  0  0  0  0  0
    0.3800  -45.2390    6.0860 H   0  0  0  0  0  0  0  0  0  0  0  0
    1.4060  -46.3520    7.1020 H   0  0  0  0  0  0  0  0  0  0  0  0
   -0.5770  -45.8160    8.4010 H   0  0  0  0  0  0  0  0  0  0  0  0
   -0.8690  -47.5300    7.7320 H   0  0  0  0  0  0  0  0  0  0  0  0
   -2.5460  -47.4120    9.0920 H   0  0  0  0  0  0  0  0  0  0  0  0
   -5.3120  -44.9900    7.7070 C   0  0  0  0  0  0  0  0  0  0  0  0
   -4.1100  -45.1670    6.9680 C   0  0  0  0  0  0  0  0  0  0  0  0
   -3.9800  -44.5600    5.6870 C   0  0  0  0  0  0  0  0  0  0  0  0
   -5.0000  -43.8010    5.1650 C   0  0  0  0  0  0  0  0  0  0  0  0
   -6.2020  -43.6260    5.9020 C   0  0  0  0  0  0  0  0  0  0  0  0
   -6.3580  -44.2010    7.1420 C   0  0  0  0  0  0  0  0  0  0  0  0
   -3.0680  -44.7340    5.1150 H   0  0  0  0  0  0  0  0  0  0  0  0
   -4.9040  -43.3340    4.1860 H   0  0  0  0  0  0  0  0  0  0  0  0
   -7.0020  -43.0290    5.4660 H   0  0  0  0  0  0  0  0  0  0  0  0
   -7.2920  -44.0650    7.6890 H   0  0  0  0  0  0  0  0  0  0  0  0
   -4.6090  -47.0800   10.3590 H   0  0  0  0  0  0  0  0  0  0  0  0
   -6.7840  -45.3120    9.9790 Cl  0  0  0  0  0  0  0  0  0  0  0  0
    1.0300  -50.7360    6.7260 N   0  0  0  0  0  0  0  0  0  0  0  0
    1.5590  -51.5200    7.0890 H   0  0  0  0  0  0  0  0  0  0  0  0
  1  2  2  0  0  0  0
  2  3  1  0  0  0  0
  2  4  1  0  0  0  0
  4 11  2  0  0  0  0
  4 43  1  0  0  0  0
  5  6  2  0  0  0  0
  5 10  1  0  0  0  0
  5 43  1  0  0  0  0
  6  7  1  0  0  0  0
  6 20  1  0  0  0  0
  7  8  2  0  0  0  0
  7 21  1  0  0  0  0
  8  9  1  0  0  0  0
  8 22  1  0  0  0  0
  9 10  2  0  0  0  0
  9 23  1  0  0  0  0
 10 11  1  0  0  0  0
 11 12  1  0  0  0  0
 12 24  1  0  0  0  0
 12 25  1  0  0  0  0
 12 13  1  0  0  0  0
 13 14  1  0  0  0  0
 13 26  1  0  0  0  0
 13 27  1  0  0  0  0
 14 15  1  0  0  0  0
 14 28  1  0  0  0  0
 14 29  1  0  0  0  0
 15 16  1  0  0  0  0
 16 19  2  0  0  0  0
 16 32  1  0  0  0  0
 17 18  2  0  0  0  0
 17 31  1  0  0  0  0
 17 42  1  0  0  0  0
 18 19  1  0  0  0  0
 18 41  1  0  0  0  0
 19 30  1  0  0  0  0
 31 32  2  0  0  0  0
 31 36  1  0  0  0  0
 32 33  1  0  0  0  0
 33 34  2  0  0  0  0
 33 37  1  0  0  0  0
 34 35  1  0  0  0  0
 34 38  1  0  0  0  0
 35 36  2  0  0  0  0
 35 39  1  0  0  0  0
 36 40  1  0  0  0  0
 43 44  1  0  0  0  0
M  CHG  1   3  -1
M  END
$$$$
