p38a_3fmh
 OpenBabel02232411163D
Structure written by MMmdl.
 46 49  0  0  1  0  0  0  0  0999 V2000
   38.3440   37.2100   14.9020 F   0  0  0  0  0  0  0  0  0  0  0  0
   37.6460   36.6990   15.9130 C   0  0  0  0  0  0  0  0  0  0  0  0
   36.3020   36.3880   15.6990 C   0  0  0  0  0  0  0  0  0  0  0  0
   35.5370   35.9070   16.7680 C   0  0  0  0  0  0  0  0  0  0  0  0
   38.2890   36.5420   17.1490 C   0  0  0  0  0  0  0  0  0  0  0  0
   37.5040   36.0770   18.2000 C   0  0  0  0  0  0  0  0  0  0  0  0
   38.0300   35.9460   19.4110 F   0  0  0  0  0  0  0  0  0  0  0  0
   36.1460   35.7430   18.0150 C   0  0  0  0  0  0  0  0  0  0  0  0
   35.4240   35.1150   19.0420 O   0  0  0  0  0  0  0  0  0  0  0  0
   35.0240   35.9450   20.0860 C   0  0  0  0  0  0  0  0  0  0  0  0
   34.5110   35.0930   21.1940 C   0  0  0  0  0  0  0  0  0  0  0  0
   34.3780   33.8900   21.1530 O   0  0  0  0  0  0  0  0  0  0  0  0
   34.1640   35.8150   22.3890 N   0  0  0  0  0  0  0  0  0  0  0  0
   33.7000   35.0570   23.5850 C   0  0  0  0  0  0  0  0  0  0  0  0
   34.2440   37.2140   22.4610 C   0  0  0  0  0  0  0  0  0  0  0  0
   33.9150   37.8240   23.6480 N   0  0  0  0  0  0  0  0  0  0  0  0
   35.0590   37.2970   20.1190 C   0  0  0  0  0  0  0  0  0  0  0  0
   34.6550   37.9710   21.3230 C   0  0  0  0  0  0  0  0  0  0  0  0
   34.6590   39.3830   21.4560 C   0  0  0  0  0  0  0  0  0  0  0  0
   34.3570   40.0070   22.6070 N   0  0  0  0  0  0  0  0  0  0  0  0
   34.0210   39.1950   23.7030 C   0  0  0  0  0  0  0  0  0  0  0  0
   33.8610   39.8330   24.9280 N   0  0  0  0  0  0  0  0  0  0  0  0
   33.0930   39.1830   26.0350 C   0  0  2  0  0  0  0  0  0  0  0  0
   31.5880   39.3660   25.8310 C   0  0  0  0  0  0  0  0  0  0  0  0
   33.5980   39.8700   27.3430 C   0  0  0  0  0  0  0  0  0  0  0  0
   33.1710   39.1220   28.5440 N   0  0  0  0  0  0  0  0  0  0  0  0
   33.7590   37.9670   28.9650 N   0  0  0  0  0  0  0  0  0  0  0  0
   33.0630   37.6250   30.0850 C   0  0  0  0  0  0  0  0  0  0  0  0
   32.0560   38.6000   30.3200 N   0  0  0  0  0  0  0  0  0  0  0  0
   32.1400   39.4850   29.3780 N   0  0  0  0  0  0  0  0  0  0  0  0
   35.8350   36.5320   14.7230 H   0  0  0  0  0  0  0  0  0  0  0  0
   34.4760   35.6820   16.6220 H   0  0  0  0  0  0  0  0  0  0  0  0
   39.3400   36.8110   17.2900 H   0  0  0  0  0  0  0  0  0  0  0  0
   34.3390   35.3140   24.4750 H   0  0  0  0  0  0  0  0  0  0  0  0
   32.6360   35.3320   23.8210 H   0  0  0  0  0  0  0  0  0  0  0  0
   33.7620   33.9540   23.3950 H   0  0  0  0  0  0  0  0  0  0  0  0
   35.3940   37.9050   19.2760 H   0  0  0  0  0  0  0  0  0  0  0  0
   34.9050   40.0170   20.5890 H   0  0  0  0  0  0  0  0  0  0  0  0
   33.7750   40.8720   24.9210 H   0  0  0  0  0  0  0  0  0  0  0  0
   33.3550   38.0870   26.0670 H   0  0  0  0  0  0  0  0  0  0  0  0
   31.0220   38.9850   26.7090 H   0  0  0  0  0  0  0  0  0  0  0  0
   31.3420   40.4430   25.6840 H   0  0  0  0  0  0  0  0  0  0  0  0
   31.2510   38.7980   24.9330 H   0  0  0  0  0  0  0  0  0  0  0  0
   34.7270   39.9230   27.3240 H   0  0  0  0  0  0  0  0  0  0  0  0
   33.1940   40.9210   27.4100 H   0  0  0  0  0  0  0  0  0  0  0  0
   33.2340   36.7520   30.7160 H   0  0  0  0  0  0  0  0  0  0  0  0
  1  2  1  0  0  0  0
  2  3  2  0  0  0  0
  2  5  1  0  0  0  0
  3  4  1  0  0  0  0
  3 31  1  0  0  0  0
  4  8  2  0  0  0  0
  4 32  1  0  0  0  0
  5  6  2  0  0  0  0
  5 33  1  0  0  0  0
  6  7  1  0  0  0  0
  6  8  1  0  0  0  0
  8  9  1  0  0  0  0
  9 10  1  0  0  0  0
 10 11  1  0  0  0  0
 10 17  2  0  0  0  0
 11 12  2  0  0  0  0
 11 13  1  0  0  0  0
 13 14  1  0  0  0  0
 13 15  1  0  0  0  0
 14 34  1  0  0  0  0
 14 35  1  0  0  0  0
 14 36  1  0  0  0  0
 15 16  2  0  0  0  0
 15 18  1  0  0  0  0
 16 21  1  0  0  0  0
 17 18  1  0  0  0  0
 17 37  1  0  0  0  0
 18 19  2  0  0  0  0
 19 20  1  0  0  0  0
 19 38  1  0  0  0  0
 20 21  2  0  0  0  0
 21 22  1  0  0  0  0
 22 23  1  0  0  0  0
 22 39  1  0  0  0  0
 23 24  1  0  0  0  0
 23 25  1  0  0  0  0
 23 40  1  6  0  0  0
 24 41  1  0  0  0  0
 24 42  1  0  0  0  0
 24 43  1  0  0  0  0
 25 26  1  0  0  0  0
 25 44  1  0  0  0  0
 25 45  1  0  0  0  0
 26 27  1  0  0  0  0
 26 30  1  0  0  0  0
 27 28  2  0  0  0  0
 28 29  1  0  0  0  0
 28 46  1  0  0  0  0
 29 30  2  0  0  0  0
M  END
$$$$
