18659-1
 OpenBabel02232411163D
Structure written by MMmdl.
 50 51  0  0  0  0  0  0  0  0999 V2000
   22.6220   13.8720   28.8840 C   0  0  0  0  0  0  0  0  0  0  0  0
   23.0140   13.6530   30.2570 O   0  0  0  0  0  0  0  0  0  0  0  0
   23.9340   12.5670   30.4400 C   0  0  0  0  0  0  0  0  0  0  0  0
   23.2830   11.1790   30.3450 C   0  0  0  0  0  0  0  0  0  0  0  0
   22.1370   11.2500   31.2680 O   0  0  0  0  0  0  0  0  0  0  0  0
   21.5110   10.0970   31.6010 C   0  0  0  0  0  0  0  0  0  0  0  0
   21.9660    8.9190   31.1170 N   0  0  0  0  0  0  0  0  0  0  0  0
   21.2460    7.7770   31.4420 C   0  0  0  0  0  0  0  0  0  0  0  0
   20.1130    7.8060   32.2500 C   0  0  0  0  0  0  0  0  0  0  0  0
   19.6470    9.0490   32.7540 C   0  0  0  0  0  0  0  0  0  0  0  0
   18.5120    9.0840   33.5230 N   0  0  0  0  0  0  0  0  0  0  0  0
   20.3590   10.2480   32.4290 C   0  0  0  0  0  0  0  0  0  0  0  0
   19.9670   11.5430   32.8320 C   0  0  0  0  0  0  0  0  0  0  0  0
   19.6950   12.6330   33.1200 N   0  0  0  0  0  0  0  0  0  0  0  0
   21.7940    6.6210   30.8470 N   0  0  0  0  0  0  0  0  0  0  0  0
   21.1920    5.3430   30.7680 C   0  0  0  0  0  0  0  0  0  0  0  0
   20.1240    5.0850   31.2820 O   0  0  0  0  0  0  0  0  0  0  0  0
   21.9830    4.3600   29.9150 C   0  0  0  0  0  0  0  0  0  0  0  0
   23.3160    4.0140   30.5100 C   0  0  0  0  0  0  0  0  0  0  0  0
   24.4430    4.8390   30.2780 C   0  0  0  0  0  0  0  0  0  0  0  0
   24.1690    5.9210   29.4460 O   0  0  0  0  0  0  0  0  0  0  0  0
   25.1850    6.9510   29.3270 C   0  0  0  0  0  0  0  0  0  0  0  0
   25.6960    4.5460   30.8290 C   0  0  0  0  0  0  0  0  0  0  0  0
   25.8460    3.4130   31.6240 C   0  0  0  0  0  0  0  0  0  0  0  0
   24.7340    2.5780   31.8440 C   0  0  0  0  0  0  0  0  0  0  0  0
   23.4770    2.8660   31.2910 C   0  0  0  0  0  0  0  0  0  0  0  0
   25.0260    1.5020   32.6570 O   0  0  0  0  0  0  0  0  0  0  0  0
   24.0270    0.4570   32.7810 C   0  0  0  0  0  0  0  0  0  0  0  0
   23.5210   14.0570   28.2530 H   0  0  0  0  0  0  0  0  0  0  0  0
   22.0460   13.0000   28.5090 H   0  0  0  0  0  0  0  0  0  0  0  0
   21.9900   14.7850   28.9670 H   0  0  0  0  0  0  0  0  0  0  0  0
   24.3070   12.7640   31.4740 H   0  0  0  0  0  0  0  0  0  0  0  0
   24.7680   12.6150   29.6940 H   0  0  0  0  0  0  0  0  0  0  0  0
   22.8810   10.9530   29.3330 H   0  0  0  0  0  0  0  0  0  0  0  0
   23.9970   10.3880   30.6800 H   0  0  0  0  0  0  0  0  0  0  0  0
   19.5630    6.8920   32.4850 H   0  0  0  0  0  0  0  0  0  0  0  0
   18.0180    8.2110   33.7890 H   0  0  0  0  0  0  0  0  0  0  0  0
   18.1220    9.9660   33.8560 H   0  0  0  0  0  0  0  0  0  0  0  0
   22.7090    6.7650   30.3480 H   0  0  0  0  0  0  0  0  0  0  0  0
   21.3730    3.4300   29.7800 H   0  0  0  0  0  0  0  0  0  0  0  0
   22.1440    4.8290   28.9050 H   0  0  0  0  0  0  0  0  0  0  0  0
   26.0560    6.5500   28.7670 H   0  0  0  0  0  0  0  0  0  0  0  0
   25.4720    7.3370   30.3290 H   0  0  0  0  0  0  0  0  0  0  0  0
   24.6460    7.7290   28.7380 H   0  0  0  0  0  0  0  0  0  0  0  0
   26.5630    5.1850   30.6420 H   0  0  0  0  0  0  0  0  0  0  0  0
   26.8190    3.1740   32.0620 H   0  0  0  0  0  0  0  0  0  0  0  0
   22.6280    2.2040   31.4650 H   0  0  0  0  0  0  0  0  0  0  0  0
   24.5650   -0.2940   33.4080 H   0  0  0  0  0  0  0  0  0  0  0  0
   23.1280    0.8430   33.3070 H   0  0  0  0  0  0  0  0  0  0  0  0
   23.7860    0.0390   31.7800 H   0  0  0  0  0  0  0  0  0  0  0  0
  1  2  1  0  0  0  0
  1 29  1  0  0  0  0
  1 30  1  0  0  0  0
  1 31  1  0  0  0  0
  2  3  1  0  0  0  0
  3  4  1  0  0  0  0
  3 32  1  0  0  0  0
  3 33  1  0  0  0  0
  4  5  1  0  0  0  0
  4 34  1  0  0  0  0
  4 35  1  0  0  0  0
  5  6  1  0  0  0  0
  6 12  2  0  0  0  0
  6  7  1  0  0  0  0
  7  8  2  0  0  0  0
  8  9  1  0  0  0  0
  8 15  1  0  0  0  0
  9 10  2  0  0  0  0
  9 36  1  0  0  0  0
 10 11  1  0  0  0  0
 10 12  1  0  0  0  0
 11 37  1  0  0  0  0
 11 38  1  0  0  0  0
 12 13  1  0  0  0  0
 13 14  3  0  0  0  0
 15 16  1  0  0  0  0
 15 39  1  0  0  0  0
 16 17  2  0  0  0  0
 16 18  1  0  0  0  0
 18 19  1  0  0  0  0
 18 40  1  0  0  0  0
 18 41  1  0  0  0  0
 19 26  2  0  0  0  0
 19 20  1  0  0  0  0
 20 21  1  0  0  0  0
 20 23  2  0  0  0  0
 21 22  1  0  0  0  0
 22 42  1  0  0  0  0
 22 43  1  0  0  0  0
 22 44  1  0  0  0  0
 23 24  1  0  0  0  0
 23 45  1  0  0  0  0
 24 25  2  0  0  0  0
 24 46  1  0  0  0  0
 25 26  1  0  0  0  0
 25 27  1  0  0  0  0
 26 47  1  0  0  0  0
 27 28  1  0  0  0  0
 28 48  1  0  0  0  0
 28 49  1  0  0  0  0
 28 50  1  0  0  0  0
M  END
$$$$
