23473
                    3D
 Schrodinger Suite 2022-3.
 41 43  0  0  1  0  0  0  0  0999 V2000
   43.8850   14.1410   16.8940 S   0  0  0  0  0  0  0  0  0  0  0  0
   43.6650   15.3480   15.6510 C   0  0  0  0  0  0  0  0  0  0  0  0
   42.7780   14.8770   14.7190 C   0  0  0  0  0  0  0  0  0  0  0  0
   42.2470   13.5670   15.0400 C   0  0  0  0  0  0  0  0  0  0  0  0
   42.7530   13.0130   16.1850 C   0  0  0  0  0  0  0  0  0  0  0  0
   44.4330   16.6650   15.7750 C   0  0  0  0  0  0  0  0  0  0  0  0
   45.3530   16.6440   16.6230 O   0  0  0  0  0  0  0  0  0  0  0  0
   44.1140   17.6320   15.0850 O   0  5  0  0  0  0  0  0  0  0  0  0
   42.5340   11.7320   16.8220 C   0  0  0  0  0  0  0  0  0  0  0  0
   41.2900   11.0870   16.7550 C   0  0  0  0  0  0  0  0  0  0  0  0
   41.1510    9.8120   17.3260 C   0  0  0  0  0  0  0  0  0  0  0  0
   42.1820    9.1750   18.0140 C   0  0  0  0  0  0  0  0  0  0  0  0
   43.4110    9.8470   18.1060 C   0  0  0  0  0  0  0  0  0  0  0  0
   43.5930   11.0930   17.5170 C   0  0  0  0  0  0  0  0  0  0  0  0
   40.9620   12.7220   13.9170 Br  0  0  0  0  0  0  0  0  0  0  0  0
   42.5420   15.5080   13.5380 O   0  0  0  0  0  0  0  0  0  0  0  0
   41.2060   16.0950   13.4150 C   0  0  0  0  0  0  0  0  0  0  0  0
   41.4680   17.5130   12.8130 C   0  0  0  0  0  0  0  0  0  0  0  0
   40.4750   18.2750   12.8320 O   0  5  0  0  0  0  0  0  0  0  0  0
   42.5780   17.7860   12.3410 O   0  0  0  0  0  0  0  0  0  0  0  0
   39.8650    9.2900   17.1920 O   0  0  0  0  0  0  0  0  0  0  0  0
   39.7640    7.8440   17.0550 C   0  0  0  0  0  0  0  0  0  0  0  0
   40.4190   11.5370   16.2720 H   0  0  0  0  0  0  0  0  0  0  0  0
   42.0560    8.2040   18.4860 H   0  0  0  0  0  0  0  0  0  0  0  0
   44.2270    9.3670   18.6520 H   0  0  0  0  0  0  0  0  0  0  0  0
   44.5760   11.5620   17.5970 H   0  0  0  0  0  0  0  0  0  0  0  0
   40.6780   16.1400   14.3920 H   0  0  0  0  0  0  0  0  0  0  0  0
   40.6530   15.4350   12.7130 H   0  0  0  0  0  0  0  0  0  0  0  0
   40.7070    7.4080   16.6410 H   0  0  0  0  0  0  0  0  0  0  0  0
   39.5560    7.4330   18.0720 H   0  0  0  0  0  0  0  0  0  0  0  0
   36.4770    7.1740   14.3490 C   0  0  0  0  0  0  0  0  0  0  0  0
   36.7080    6.2950   15.4110 C   0  0  0  0  0  0  0  0  0  0  0  0
   37.7720    6.5170   16.2890 C   0  0  0  0  0  0  0  0  0  0  0  0
   38.6200    7.6180   16.0990 C   0  0  0  0  0  0  0  0  0  0  0  0
   38.4030    8.4870   15.0180 C   0  0  0  0  0  0  0  0  0  0  0  0
   37.3270    8.2680   14.1540 C   0  0  0  0  0  0  0  0  0  0  0  0
   35.6370    6.9960   13.6760 H   0  0  0  0  0  0  0  0  0  0  0  0
   36.0560    5.4300   15.5580 H   0  0  0  0  0  0  0  0  0  0  0  0
   37.9400    5.8210   17.1160 H   0  0  0  0  0  0  0  0  0  0  0  0
   39.0810    9.3330   14.8470 H   0  0  0  0  0  0  0  0  0  0  0  0
   37.1500    8.9530   13.3200 H   0  0  0  0  0  0  0  0  0  0  0  0
  1  2  1  0  0  0  0
  1  5  1  0  0  0  0
  2  3  2  0  0  0  0
  2  6  1  0  0  0  0
  3  4  1  0  0  0  0
  3 16  1  0  0  0  0
  4  5  2  0  0  0  0
  4 15  1  0  0  0  0
  5  9  1  0  0  0  0
  6  7  2  0  0  0  0
  6  8  1  0  0  0  0
  9 10  1  0  0  0  0
  9 14  2  0  0  0  0
 10 11  2  0  0  0  0
 10 23  1  0  0  0  0
 11 12  1  0  0  0  0
 11 21  1  0  0  0  0
 12 13  2  0  0  0  0
 12 24  1  0  0  0  0
 13 14  1  0  0  0  0
 13 25  1  0  0  0  0
 14 26  1  0  0  0  0
 16 17  1  0  0  0  0
 17 18  1  0  0  0  0
 17 27  1  0  0  0  0
 17 28  1  0  0  0  0
 18 19  1  0  0  0  0
 18 20  2  0  0  0  0
 21 22  1  0  0  0  0
 22 29  1  0  0  0  0
 22 30  1  0  0  0  0
 22 34  1  0  0  0  0
 31 32  2  0  0  0  0
 31 36  1  0  0  0  0
 31 37  1  0  0  0  0
 32 33  1  0  0  0  0
 32 38  1  0  0  0  0
 33 34  2  0  0  0  0
 33 39  1  0  0  0  0
 34 35  1  0  0  0  0
 35 36  2  0  0  0  0
 35 40  1  0  0  0  0
 36 41  1  0  0  0  0
M  CHG  2   8  -1  19  -1
M  END
$$$$
