31
                    3D
 Schrodinger Suite 2022-3.
 50 53  0  0  1  0  0  0  0  0999 V2000
    2.0110   28.9190    6.7770 C   0  0  0  0  0  0  0  0  0  0  0  0
   -1.5220   31.4940    7.8410 C   0  0  0  0  0  0  0  0  0  0  0  0
   -0.1190   26.0260    8.8190 C   0  0  0  0  0  0  0  0  0  0  0  0
   -0.9490   25.4070    9.9530 C   0  0  0  0  0  0  0  0  0  0  0  0
   -0.8470   23.8700    9.8200 C   0  0  0  0  0  0  0  0  0  0  0  0
   -1.5770   23.1680   10.9730 C   0  0  0  0  0  0  0  0  0  0  0  0
   -1.0720   23.6440   12.3430 C   0  0  0  0  0  0  0  0  0  0  0  0
   -1.1840   25.1720   12.4780 C   0  0  0  0  0  0  0  0  0  0  0  0
   -0.4590   25.8910   11.3310 C   0  0  0  0  0  0  0  0  0  0  0  0
    5.1730   25.7970    4.7830 C   0  0  0  0  0  0  0  0  0  0  0  0
    5.0000   24.7760    5.7250 C   0  0  0  0  0  0  0  0  0  0  0  0
    4.3370   25.0270    6.9210 C   0  0  0  0  0  0  0  0  0  0  0  0
    3.7640   26.2860    7.1620 C   0  0  0  0  0  0  0  0  0  0  0  0
    1.2890   27.9560    7.4740 N   0  0  0  0  0  0  0  0  0  0  0  0
    0.0770   28.2870    7.9950 C   0  0  0  0  0  0  0  0  0  0  0  0
   -0.6530   27.4030    8.6860 O   0  0  0  0  0  0  0  0  0  0  0  0
   -0.4440   29.5980    7.8270 C   0  0  0  0  0  0  0  0  0  0  0  0
   -1.6150   30.2310    8.2630 N   0  0  0  0  0  0  0  0  0  0  0  0
   -0.2870   31.7460    7.1430 N   0  0  0  0  0  0  0  0  0  0  0  0
    0.3940   30.5330    7.0990 C   0  0  0  0  0  0  0  0  0  0  0  0
    1.6030   30.2210    6.5310 N   0  0  0  0  0  0  0  0  0  0  0  0
    3.2870   28.5940    6.3060 N   0  0  0  0  0  0  0  0  0  0  0  0
    3.8500   27.2810    6.1780 C   0  0  0  0  0  0  0  0  0  0  0  0
    4.6030   27.0440    5.0040 C   0  0  0  0  0  0  0  0  0  0  0  0
   -2.2490   32.2880    7.9870 H   0  0  0  0  0  0  0  0  0  0  0  0
   -0.3210   25.5420    7.8430 H   0  0  0  0  0  0  0  0  0  0  0  0
    0.9640   26.0680    9.0630 H   0  0  0  0  0  0  0  0  0  0  0  0
   -2.0190   25.7100    9.8290 H   0  0  0  0  0  0  0  0  0  0  0  0
    0.2270   23.5650    9.8300 H   0  0  0  0  0  0  0  0  0  0  0  0
   -1.3020   23.5520    8.8560 H   0  0  0  0  0  0  0  0  0  0  0  0
   -1.4290   22.0660   10.8910 H   0  0  0  0  0  0  0  0  0  0  0  0
   -2.6660   23.3860   10.8970 H   0  0  0  0  0  0  0  0  0  0  0  0
   -0.0060   23.3440   12.4710 H   0  0  0  0  0  0  0  0  0  0  0  0
   -1.6740   23.1590   13.1460 H   0  0  0  0  0  0  0  0  0  0  0  0
   -0.7270   25.4850   13.4460 H   0  0  0  0  0  0  0  0  0  0  0  0
   -2.2600   25.4620   12.4910 H   0  0  0  0  0  0  0  0  0  0  0  0
   -0.6330   26.9880   11.4190 H   0  0  0  0  0  0  0  0  0  0  0  0
    0.6360   25.6990   11.4320 H   0  0  0  0  0  0  0  0  0  0  0  0
    5.7420   25.6240    3.8610 H   0  0  0  0  0  0  0  0  0  0  0  0
    4.2270   24.2490    7.6840 H   0  0  0  0  0  0  0  0  0  0  0  0
    3.2340   26.4680    8.1010 H   0  0  0  0  0  0  0  0  0  0  0  0
   -0.0600   32.6150    6.6410 H   0  0  0  0  0  0  0  0  0  0  0  0
    3.7120   29.2820    5.6300 H   0  0  0  0  0  0  0  0  0  0  0  0
    4.7420   27.8250    4.2590 H   0  0  0  0  0  0  0  0  0  0  0  0
    5.6960   23.2180    5.1860 S   0  0  1  0  0  0  0  0  0  0  0  0
    5.7460   22.2890    6.3770 O   0  0  0  0  0  0  0  0  0  0  0  0
    4.6250   21.7260    3.6300 H   0  0  0  0  0  0  0  0  0  0  0  0
    3.3800   22.4440    4.7340 H   0  0  0  0  0  0  0  0  0  0  0  0
    4.3050   22.6500    4.1660 C   0  0  0  0  0  0  0  0  0  0  0  0
    4.1050   23.4300    3.3900 H   0  0  0  0  0  0  0  0  0  0  0  0
  1 14  1  0  0  0  0
  1 21  2  0  0  0  0
  1 22  1  0  0  0  0
  2 18  2  0  0  0  0
  2 19  1  0  0  0  0
  2 25  1  0  0  0  0
  3  4  1  0  0  0  0
  3 16  1  0  0  0  0
  3 26  1  0  0  0  0
  3 27  1  0  0  0  0
  4  5  1  0  0  0  0
  4  9  1  0  0  0  0
  4 28  1  0  0  0  0
  5  6  1  0  0  0  0
  5 29  1  0  0  0  0
  5 30  1  0  0  0  0
  6  7  1  0  0  0  0
  6 31  1  0  0  0  0
  6 32  1  0  0  0  0
  7  8  1  0  0  0  0
  7 33  1  0  0  0  0
  7 34  1  0  0  0  0
  8  9  1  0  0  0  0
  8 35  1  0  0  0  0
  8 36  1  0  0  0  0
  9 37  1  0  0  0  0
  9 38  1  0  0  0  0
 10 11  1  0  0  0  0
 10 24  2  0  0  0  0
 10 39  1  0  0  0  0
 11 12  2  0  0  0  0
 11 45  1  0  0  0  0
 12 13  1  0  0  0  0
 12 40  1  0  0  0  0
 13 23  2  0  0  0  0
 13 41  1  0  0  0  0
 14 15  2  0  0  0  0
 15 16  1  0  0  0  0
 15 17  1  0  0  0  0
 17 18  1  0  0  0  0
 17 20  2  0  0  0  0
 19 20  1  0  0  0  0
 19 42  1  0  0  0  0
 20 21  1  0  0  0  0
 22 23  1  0  0  0  0
 22 43  1  0  0  0  0
 23 24  1  0  0  0  0
 24 44  1  0  0  0  0
 45 46  1  0  0  0  0
 45 49  1  0  0  0  0
 47 49  1  0  0  0  0
 48 49  1  0  0  0  0
 49 50  1  0  0  0  0
M  END
$$$$
