18627-1
 OpenBabel02232411163D
Structure written by MMmdl.
 38 39  0  0  0  0  0  0  0  0999 V2000
   23.8000   12.6800   30.3500 C   0  0  0  0  0  0  0  0  0  0  0  0
   23.3720   11.2280   30.4330 C   0  0  0  0  0  0  0  0  0  0  0  0
   22.1340   11.2920   31.2540 O   0  0  0  0  0  0  0  0  0  0  0  0
   21.5200   10.1400   31.5890 C   0  0  0  0  0  0  0  0  0  0  0  0
   22.0150    8.9610   31.1410 N   0  0  0  0  0  0  0  0  0  0  0  0
   21.3080    7.8100   31.4570 C   0  0  0  0  0  0  0  0  0  0  0  0
   20.1560    7.8240   32.2370 C   0  0  0  0  0  0  0  0  0  0  0  0
   19.6480    9.0650   32.7090 C   0  0  0  0  0  0  0  0  0  0  0  0
   18.5020    9.0900   33.4610 N   0  0  0  0  0  0  0  0  0  0  0  0
   20.3360   10.2740   32.3750 C   0  0  0  0  0  0  0  0  0  0  0  0
   19.8990   11.5660   32.7360 C   0  0  0  0  0  0  0  0  0  0  0  0
   19.5890   12.6550   32.9890 N   0  0  0  0  0  0  0  0  0  0  0  0
   21.8940    6.6590   30.8750 N   0  0  0  0  0  0  0  0  0  0  0  0
   21.3640    5.3450   30.8540 C   0  0  0  0  0  0  0  0  0  0  0  0
   20.3300    5.0470   31.4120 O   0  0  0  0  0  0  0  0  0  0  0  0
   22.1890    4.3780   30.0140 C   0  0  0  0  0  0  0  0  0  0  0  0
   23.4860    3.9990   30.6760 C   0  0  0  0  0  0  0  0  0  0  0  0
   24.6480    4.7510   30.4390 C   0  0  0  0  0  0  0  0  0  0  0  0
   25.8530    4.4100   31.0580 C   0  0  0  0  0  0  0  0  0  0  0  0
   25.8820    3.3060   31.9120 C   0  0  0  0  0  0  0  0  0  0  0  0
   27.3640    2.8800   32.6820 Cl  0  0  0  0  0  0  0  0  0  0  0  0
   24.7450    2.5300   32.1500 C   0  0  0  0  0  0  0  0  0  0  0  0
   23.5480    2.8780   31.5190 C   0  0  0  0  0  0  0  0  0  0  0  0
   24.0600   13.0860   31.3530 H   0  0  0  0  0  0  0  0  0  0  0  0
   22.9940   13.3100   29.9040 H   0  0  0  0  0  0  0  0  0  0  0  0
   24.7010   12.7500   29.6900 H   0  0  0  0  0  0  0  0  0  0  0  0
   23.0930   10.8070   29.4410 H   0  0  0  0  0  0  0  0  0  0  0  0
   24.1120   10.5910   30.9660 H   0  0  0  0  0  0  0  0  0  0  0  0
   19.6240    6.9000   32.4750 H   0  0  0  0  0  0  0  0  0  0  0  0
   18.0120    8.2140   33.7250 H   0  0  0  0  0  0  0  0  0  0  0  0
   18.0900    9.9710   33.7720 H   0  0  0  0  0  0  0  0  0  0  0  0
   22.7870    6.8330   30.3700 H   0  0  0  0  0  0  0  0  0  0  0  0
   21.5760    3.4560   29.8340 H   0  0  0  0  0  0  0  0  0  0  0  0
   22.3980    4.8490   29.0160 H   0  0  0  0  0  0  0  0  0  0  0  0
   24.6360    5.6060   29.7560 H   0  0  0  0  0  0  0  0  0  0  0  0
   26.7550    5.0000   30.8640 H   0  0  0  0  0  0  0  0  0  0  0  0
   24.7870    1.6580   32.8110 H   0  0  0  0  0  0  0  0  0  0  0  0
   22.6640    2.2560   31.6860 H   0  0  0  0  0  0  0  0  0  0  0  0
  1  2  1  0  0  0  0
  1 24  1  0  0  0  0
  1 25  1  0  0  0  0
  1 26  1  0  0  0  0
  2  3  1  0  0  0  0
  2 27  1  0  0  0  0
  2 28  1  0  0  0  0
  3  4  1  0  0  0  0
  4 10  2  0  0  0  0
  4  5  1  0  0  0  0
  5  6  2  0  0  0  0
  6  7  1  0  0  0  0
  6 13  1  0  0  0  0
  7  8  2  0  0  0  0
  7 29  1  0  0  0  0
  8  9  1  0  0  0  0
  8 10  1  0  0  0  0
  9 30  1  0  0  0  0
  9 31  1  0  0  0  0
 10 11  1  0  0  0  0
 11 12  3  0  0  0  0
 13 14  1  0  0  0  0
 13 32  1  0  0  0  0
 14 15  2  0  0  0  0
 14 16  1  0  0  0  0
 16 17  1  0  0  0  0
 16 33  1  0  0  0  0
 16 34  1  0  0  0  0
 17 23  2  0  0  0  0
 17 18  1  0  0  0  0
 18 19  2  0  0  0  0
 18 35  1  0  0  0  0
 19 20  1  0  0  0  0
 19 36  1  0  0  0  0
 20 21  1  0  0  0  0
 20 22  2  0  0  0  0
 22 23  1  0  0  0  0
 22 37  1  0  0  0  0
 23 38  1  0  0  0  0
M  END
$$$$
