18639-1
 OpenBabel02232411163D
Structure written by MMmdl.
 48 49  0  0  0  0  0  0  0  0999 V2000
   24.4280   10.9410   30.7530 C   0  0  0  0  0  0  0  0  0  0  0  0
   23.0970   11.2770   30.1140 C   0  0  0  0  0  0  0  0  0  0  0  0
   22.0230   11.3320   31.1280 O   0  0  0  0  0  0  0  0  0  0  0  0
   21.4430   10.1800   31.5380 C   0  0  0  0  0  0  0  0  0  0  0  0
   21.9270    8.9920   31.1070 N   0  0  0  0  0  0  0  0  0  0  0  0
   21.2370    7.8480   31.4760 C   0  0  0  0  0  0  0  0  0  0  0  0
   20.1000    7.8780   32.2760 C   0  0  0  0  0  0  0  0  0  0  0  0
   19.6060    9.1290   32.7360 C   0  0  0  0  0  0  0  0  0  0  0  0
   18.4720    9.1640   33.5050 N   0  0  0  0  0  0  0  0  0  0  0  0
   20.2920   10.3300   32.3690 C   0  0  0  0  0  0  0  0  0  0  0  0
   19.8760   11.6280   32.7340 C   0  0  0  0  0  0  0  0  0  0  0  0
   19.5850   12.7210   32.9910 N   0  0  0  0  0  0  0  0  0  0  0  0
   21.8300    6.6860   30.9290 N   0  0  0  0  0  0  0  0  0  0  0  0
   21.2800    5.3880   30.8950 C   0  0  0  0  0  0  0  0  0  0  0  0
   20.2120    5.1060   31.3970 O   0  0  0  0  0  0  0  0  0  0  0  0
   22.1210    4.3990   30.0940 C   0  0  0  0  0  0  0  0  0  0  0  0
   23.5040    4.1770   30.6310 C   0  0  0  0  0  0  0  0  0  0  0  0
   24.5720    5.0660   30.2880 C   0  0  0  0  0  0  0  0  0  0  0  0
   24.1740    6.1060   29.4590 O   0  0  0  0  0  0  0  0  0  0  0  0
   25.0970    7.2180   29.2800 C   0  0  0  0  0  0  0  0  0  0  0  0
   25.8680    4.8530   30.7310 C   0  0  0  0  0  0  0  0  0  0  0  0
   26.1450    3.7460   31.5610 C   0  0  0  0  0  0  0  0  0  0  0  0
   27.5150    3.5230   32.0300 N   0  3  0  0  0  0  0  0  0  0  0  0
   27.6940    2.7160   32.9300 O   0  5  0  0  0  0  0  0  0  0  0  0
   28.4250    4.1500   31.4990 O   0  0  0  0  0  0  0  0  0  0  0  0
   25.1010    2.8580   31.9120 C   0  0  0  0  0  0  0  0  0  0  0  0
   23.7890    3.0820   31.4310 C   0  0  0  0  0  0  0  0  0  0  0  0
   25.4910    1.8290   32.7150 O   0  0  0  0  0  0  0  0  0  0  0  0
   24.5240    0.7710   32.9820 C   0  0  0  0  0  0  0  0  0  0  0  0
   25.2150   10.8910   29.9590 H   0  0  0  0  0  0  0  0  0  0  0  0
   24.7230   11.7120   31.4950 H   0  0  0  0  0  0  0  0  0  0  0  0
   24.3930    9.9450   31.2560 H   0  0  0  0  0  0  0  0  0  0  0  0
   23.0570   12.3310   29.7490 H   0  0  0  0  0  0  0  0  0  0  0  0
   22.8170   10.5510   29.3180 H   0  0  0  0  0  0  0  0  0  0  0  0
   19.5720    6.9590   32.5390 H   0  0  0  0  0  0  0  0  0  0  0  0
   17.9740    8.2890   33.7610 H   0  0  0  0  0  0  0  0  0  0  0  0
   18.0580   10.0480   33.8020 H   0  0  0  0  0  0  0  0  0  0  0  0
   22.7320    6.8490   30.4150 H   0  0  0  0  0  0  0  0  0  0  0  0
   21.5740    3.4180   30.0600 H   0  0  0  0  0  0  0  0  0  0  0  0
   22.2020    4.7930   29.0400 H   0  0  0  0  0  0  0  0  0  0  0  0
   25.4570    7.5940   30.2610 H   0  0  0  0  0  0  0  0  0  0  0  0
   25.9270    6.8920   28.6170 H   0  0  0  0  0  0  0  0  0  0  0  0
   24.4390    7.9670   28.7800 H   0  0  0  0  0  0  0  0  0  0  0  0
   26.6880    5.5190   30.4360 H   0  0  0  0  0  0  0  0  0  0  0  0
   22.9950    2.3760   31.6860 H   0  0  0  0  0  0  0  0  0  0  0  0
   25.1420    0.0500   33.5670 H   0  0  0  0  0  0  0  0  0  0  0  0
   23.6840    1.1660   33.5930 H   0  0  0  0  0  0  0  0  0  0  0  0
   24.1790    0.3180   32.0260 H   0  0  0  0  0  0  0  0  0  0  0  0
  1  2  1  0  0  0  0
  1 30  1  0  0  0  0
  1 31  1  0  0  0  0
  1 32  1  0  0  0  0
  2  3  1  0  0  0  0
  2 33  1  0  0  0  0
  2 34  1  0  0  0  0
  3  4  1  0  0  0  0
  4 10  2  0  0  0  0
  4  5  1  0  0  0  0
  5  6  2  0  0  0  0
  6  7  1  0  0  0  0
  6 13  1  0  0  0  0
  7  8  2  0  0  0  0
  7 35  1  0  0  0  0
  8  9  1  0  0  0  0
  8 10  1  0  0  0  0
  9 36  1  0  0  0  0
  9 37  1  0  0  0  0
 10 11  1  0  0  0  0
 11 12  3  0  0  0  0
 13 14  1  0  0  0  0
 13 38  1  0  0  0  0
 14 15  2  0  0  0  0
 14 16  1  0  0  0  0
 16 17  1  0  0  0  0
 16 39  1  0  0  0  0
 16 40  1  0  0  0  0
 17 27  2  0  0  0  0
 17 18  1  0  0  0  0
 18 19  1  0  0  0  0
 18 21  2  0  0  0  0
 19 20  1  0  0  0  0
 20 41  1  0  0  0  0
 20 42  1  0  0  0  0
 20 43  1  0  0  0  0
 21 22  1  0  0  0  0
 21 44  1  0  0  0  0
 22 23  1  0  0  0  0
 22 26  2  0  0  0  0
 23 24  1  0  0  0  0
 23 25  2  0  0  0  0
 26 27  1  0  0  0  0
 26 28  1  0  0  0  0
 27 45  1  0  0  0  0
 28 29  1  0  0  0  0
 29 46  1  0  0  0  0
 29 47  1  0  0  0  0
 29 48  1  0  0  0  0
M  CHG  2  23   1  24  -1
M  END
$$$$
