27
 OpenBabel02232411163D
Structure written by MMmdl.
 38 40  0  0  0  0  0  0  0  0999 V2000
    3.3920  -48.2120    7.0990 O   0  0  0  0  0  0  0  0  0  0  0  0
    3.0000  -49.1740    6.4250 C   0  0  0  0  0  0  0  0  0  0  0  0
    3.7090  -49.9850    5.7970 O   0  5  0  0  0  0  0  0  0  0  0  0
    1.4860  -49.4560    6.3530 C   0  0  0  0  0  0  0  0  0  0  0  0
   -0.3760  -50.7790    6.5170 C   0  0  0  0  0  0  0  0  0  0  0  0
   -1.3000  -51.8140    6.7440 C   0  0  0  0  0  0  0  0  0  0  0  0
   -2.6330  -51.5540    6.4590 C   0  0  0  0  0  0  0  0  0  0  0  0
   -3.0450  -50.2980    5.9550 C   0  0  0  0  0  0  0  0  0  0  0  0
   -2.1370  -49.2720    5.7310 C   0  0  0  0  0  0  0  0  0  0  0  0
   -0.7780  -49.4880    6.0170 C   0  0  0  0  0  0  0  0  0  0  0  0
    0.4150  -48.6720    5.9400 C   0  0  0  0  0  0  0  0  0  0  0  0
    0.4130  -47.2540    5.4950 C   0  0  0  0  0  0  0  0  0  0  0  0
    0.3040  -46.2560    6.6630 C   0  0  0  0  0  0  0  0  0  0  0  0
   -1.0300  -46.3100    7.4060 C   0  0  0  0  0  0  0  0  0  0  0  0
   -1.9930  -45.7360    6.4480 O   0  0  0  0  0  0  0  0  0  0  0  0
   -3.2500  -45.4380    6.8870 C   0  0  0  0  0  0  0  0  0  0  0  0
   -3.8100  -45.8590    8.1050 C   0  0  0  0  0  0  0  0  0  0  0  0
   -5.1150  -45.4640    8.4130 C   0  0  0  0  0  0  0  0  0  0  0  0
   -5.8510  -44.6660    7.5340 C   0  0  0  0  0  0  0  0  0  0  0  0
   -5.2830  -44.2650    6.3150 C   0  0  0  0  0  0  0  0  0  0  0  0
   -3.9890  -44.6440    5.9780 C   0  0  0  0  0  0  0  0  0  0  0  0
   -0.9900  -52.7840    7.1320 H   0  0  0  0  0  0  0  0  0  0  0  0
   -3.3860  -52.3250    6.6270 H   0  0  0  0  0  0  0  0  0  0  0  0
   -4.1040  -50.1430    5.7420 H   0  0  0  0  0  0  0  0  0  0  0  0
   -2.4820  -48.3130    5.3420 H   0  0  0  0  0  0  0  0  0  0  0  0
   -0.4670  -47.0900    4.8200 H   0  0  0  0  0  0  0  0  0  0  0  0
    1.3440  -47.0180    4.9250 H   0  0  0  0  0  0  0  0  0  0  0  0
    0.4260  -45.2210    6.2620 H   0  0  0  0  0  0  0  0  0  0  0  0
    1.1130  -46.4630    7.4040 H   0  0  0  0  0  0  0  0  0  0  0  0
   -1.0260  -45.6530    8.3020 H   0  0  0  0  0  0  0  0  0  0  0  0
   -1.3700  -47.3440    7.6240 H   0  0  0  0  0  0  0  0  0  0  0  0
   -3.2710  -46.4950    8.8020 H   0  0  0  0  0  0  0  0  0  0  0  0
   -3.5490  -44.3420    5.0310 H   0  0  0  0  0  0  0  0  0  0  0  0
    1.0130  -50.7340    6.7140 N   0  0  0  0  0  0  0  0  0  0  0  0
    1.5560  -51.5240    7.0430 H   0  0  0  0  0  0  0  0  0  0  0  0
   -5.8680  -43.6510    5.6260 H   0  0  0  0  0  0  0  0  0  0  0  0
   -6.8650  -44.3650    7.7860 H   0  0  0  0  0  0  0  0  0  0  0  0
   -5.5700  -45.7860    9.3530 H   0  0  0  0  0  0  0  0  0  0  0  0
  1  2  2  0  0  0  0
  2  3  1  0  0  0  0
  2  4  1  0  0  0  0
  4 11  2  0  0  0  0
  4 34  1  0  0  0  0
  5  6  2  0  0  0  0
  5 10  1  0  0  0  0
  5 34  1  0  0  0  0
  6  7  1  0  0  0  0
  6 22  1  0  0  0  0
  7  8  2  0  0  0  0
  7 23  1  0  0  0  0
  8  9  1  0  0  0  0
  8 24  1  0  0  0  0
  9 10  2  0  0  0  0
  9 25  1  0  0  0  0
 10 11  1  0  0  0  0
 11 12  1  0  0  0  0
 12 26  1  0  0  0  0
 12 27  1  0  0  0  0
 12 13  1  0  0  0  0
 13 14  1  0  0  0  0
 13 28  1  0  0  0  0
 13 29  1  0  0  0  0
 14 15  1  0  0  0  0
 14 30  1  0  0  0  0
 14 31  1  0  0  0  0
 15 16  1  0  0  0  0
 16 17  2  0  0  0  0
 16 21  1  0  0  0  0
 17 18  1  0  0  0  0
 17 32  1  0  0  0  0
 18 19  2  0  0  0  0
 18 38  1  0  0  0  0
 19 20  1  0  0  0  0
 19 37  1  0  0  0  0
 20 21  2  0  0  0  0
 20 36  1  0  0  0  0
 21 33  1  0  0  0  0
 34 35  1  0  0  0  0
M  CHG  1   3  -1
M  END
$$$$
