18652-1
 OpenBabel02232411163D
Structure written by MMmdl.
 55 56  0  0  0  0  0  0  0  0999 V2000
   23.2470   10.4920   28.9730 C   0  0  0  0  0  0  0  0  0  0  0  0
   23.5760   10.9690   30.3770 C   0  0  0  0  0  0  0  0  0  0  0  0
   24.0800   12.4060   30.4230 C   0  0  0  0  0  0  0  0  0  0  0  0
   22.3160   11.0740   31.1850 O   0  0  0  0  0  0  0  0  0  0  0  0
   21.6780    9.9600   31.5880 C   0  0  0  0  0  0  0  0  0  0  0  0
   22.1570    8.7430   31.2270 N   0  0  0  0  0  0  0  0  0  0  0  0
   21.4100    7.6320   31.5770 C   0  0  0  0  0  0  0  0  0  0  0  0
   20.2420    7.7160   32.3290 C   0  0  0  0  0  0  0  0  0  0  0  0
   19.7600    8.9900   32.7330 C   0  0  0  0  0  0  0  0  0  0  0  0
   18.5930    9.0720   33.4520 N   0  0  0  0  0  0  0  0  0  0  0  0
   20.4920   10.1630   32.3590 C   0  0  0  0  0  0  0  0  0  0  0  0
   20.0900   11.4780   32.6740 C   0  0  0  0  0  0  0  0  0  0  0  0
   19.8030   12.5790   32.8990 N   0  0  0  0  0  0  0  0  0  0  0  0
   21.9510    6.4290   31.0530 N   0  0  0  0  0  0  0  0  0  0  0  0
   21.2460    5.2120   30.9450 C   0  0  0  0  0  0  0  0  0  0  0  0
   20.1600    5.0360   31.4580 O   0  0  0  0  0  0  0  0  0  0  0  0
   21.9100    4.1730   30.0570 C   0  0  0  0  0  0  0  0  0  0  0  0
   23.2750    3.7170   30.4770 C   0  0  0  0  0  0  0  0  0  0  0  0
   24.4320    4.3850   29.9710 C   0  0  0  0  0  0  0  0  0  0  0  0
   24.1170    5.5190   29.2260 O   0  0  0  0  0  0  0  0  0  0  0  0
   25.1780    6.4970   29.0500 C   0  0  0  0  0  0  0  0  0  0  0  0
   25.7060    3.8730   30.1690 C   0  0  0  0  0  0  0  0  0  0  0  0
   25.8960    2.7070   30.9390 C   0  0  0  0  0  0  0  0  0  0  0  0
   27.5260    2.0770   31.0540 S   0  0  0  0  0  0  0  0  0  0  0  0
   27.4640    0.7620   31.7400 O   0  0  0  0  0  0  0  0  0  0  0  0
   28.3780    3.0250   31.8120 O   0  0  0  0  0  0  0  0  0  0  0  0
   28.0770    1.8910   29.4180 C   0  0  0  0  0  0  0  0  0  0  0  0
   24.7740    2.1180   31.5390 C   0  0  0  0  0  0  0  0  0  0  0  0
   23.4610    2.6020   31.2740 C   0  0  0  0  0  0  0  0  0  0  0  0
   25.0400    1.0740   32.3810 O   0  0  0  0  0  0  0  0  0  0  0  0
   23.9150    0.3960   33.0140 C   0  0  0  0  0  0  0  0  0  0  0  0
   22.8840    9.4380   28.9780 H   0  0  0  0  0  0  0  0  0  0  0  0
   22.4770   11.1360   28.4940 H   0  0  0  0  0  0  0  0  0  0  0  0
   24.1700   10.5360   28.3450 H   0  0  0  0  0  0  0  0  0  0  0  0
   24.2540   10.2640   30.9110 H   0  0  0  0  0  0  0  0  0  0  0  0
   24.2800   12.7300   31.4670 H   0  0  0  0  0  0  0  0  0  0  0  0
   25.0320   12.4700   29.8390 H   0  0  0  0  0  0  0  0  0  0  0  0
   23.3450   13.1050   29.9620 H   0  0  0  0  0  0  0  0  0  0  0  0
   19.6750    6.8220   32.5950 H   0  0  0  0  0  0  0  0  0  0  0  0
   18.0760    8.2170   33.7280 H   0  0  0  0  0  0  0  0  0  0  0  0
   18.1960    9.9720   33.7220 H   0  0  0  0  0  0  0  0  0  0  0  0
   22.8670    6.5150   30.5550 H   0  0  0  0  0  0  0  0  0  0  0  0
   21.2350    3.2790   29.9980 H   0  0  0  0  0  0  0  0  0  0  0  0
   21.9870    4.6280   29.0270 H   0  0  0  0  0  0  0  0  0  0  0  0
   25.8890    6.1270   28.2800 H   0  0  0  0  0  0  0  0  0  0  0  0
   24.6100    7.3850   28.6920 H   0  0  0  0  0  0  0  0  0  0  0  0
   25.6840    6.7050   30.0170 H   0  0  0  0  0  0  0  0  0  0  0  0
   26.5640    4.3760   29.7110 H   0  0  0  0  0  0  0  0  0  0  0  0
   28.1940    2.8710   28.8820 H   0  0  0  0  0  0  0  0  0  0  0  0
   29.0760    1.3850   29.3580 H   0  0  0  0  0  0  0  0  0  0  0  0
   27.3690    1.2820   28.7980 H   0  0  0  0  0  0  0  0  0  0  0  0
   22.5920    2.0790   31.6760 H   0  0  0  0  0  0  0  0  0  0  0  0
   23.3630    1.0960   33.6770 H   0  0  0  0  0  0  0  0  0  0  0  0
   23.2600   -0.0650   32.2430 H   0  0  0  0  0  0  0  0  0  0  0  0
   24.4350   -0.3920   33.6110 H   0  0  0  0  0  0  0  0  0  0  0  0
  1  2  1  0  0  0  0
  1 32  1  0  0  0  0
  1 33  1  0  0  0  0
  1 34  1  0  0  0  0
  2  3  1  0  0  0  0
  2  4  1  0  0  0  0
  2 35  1  0  0  0  0
  3 36  1  0  0  0  0
  3 37  1  0  0  0  0
  3 38  1  0  0  0  0
  4  5  1  0  0  0  0
  5 11  2  0  0  0  0
  5  6  1  0  0  0  0
  6  7  2  0  0  0  0
  7  8  1  0  0  0  0
  7 14  1  0  0  0  0
  8  9  2  0  0  0  0
  8 39  1  0  0  0  0
  9 10  1  0  0  0  0
  9 11  1  0  0  0  0
 10 40  1  0  0  0  0
 10 41  1  0  0  0  0
 11 12  1  0  0  0  0
 12 13  3  0  0  0  0
 14 15  1  0  0  0  0
 14 42  1  0  0  0  0
 15 16  2  0  0  0  0
 15 17  1  0  0  0  0
 17 18  1  0  0  0  0
 17 43  1  0  0  0  0
 17 44  1  0  0  0  0
 18 29  2  0  0  0  0
 18 19  1  0  0  0  0
 19 20  1  0  0  0  0
 19 22  2  0  0  0  0
 20 21  1  0  0  0  0
 21 45  1  0  0  0  0
 21 46  1  0  0  0  0
 21 47  1  0  0  0  0
 22 23  1  0  0  0  0
 22 48  1  0  0  0  0
 23 24  1  0  0  0  0
 23 28  2  0  0  0  0
 24 25  2  0  0  0  0
 24 26  2  0  0  0  0
 24 27  1  0  0  0  0
 27 49  1  0  0  0  0
 27 50  1  0  0  0  0
 27 51  1  0  0  0  0
 28 29  1  0  0  0  0
 28 30  1  0  0  0  0
 29 52  1  0  0  0  0
 30 31  1  0  0  0  0
 31 53  1  0  0  0  0
 31 54  1  0  0  0  0
 31 55  1  0  0  0  0
M  END
$$$$
