p38a_2o
 OpenBabel02232411163D
Structure written by MMmdl.
 55 58  0  0  0  0  0  0  0  0999 V2000
   38.1990   36.4840   17.2490 C   0  0  0  0  0  0  0  0  0  0  0  0
   34.5640   35.1690   21.3860 C   0  0  0  0  0  0  0  0  0  0  0  0
   37.3950   36.0760   18.3100 C   0  0  0  0  0  0  0  0  0  0  0  0
   34.1240   39.2390   23.9740 C   0  0  0  0  0  0  0  0  0  0  0  0
   34.6320   38.0460   21.5350 C   0  0  0  0  0  0  0  0  0  0  0  0
   34.9560   37.3970   20.2930 C   0  0  0  0  0  0  0  0  0  0  0  0
   37.5610   36.6560   16.0130 C   0  0  0  0  0  0  0  0  0  0  0  0
   36.2000   36.4160   15.8090 C   0  0  0  0  0  0  0  0  0  0  0  0
   35.4140   36.0010   16.8900 C   0  0  0  0  0  0  0  0  0  0  0  0
   34.3450   37.2690   22.6950 C   0  0  0  0  0  0  0  0  0  0  0  0
   34.5980   39.4590   21.6860 C   0  0  0  0  0  0  0  0  0  0  0  0
   34.9560   36.0450   20.2500 C   0  0  0  0  0  0  0  0  0  0  0  0
   36.0170   35.8210   18.1380 C   0  0  0  0  0  0  0  0  0  0  0  0
   37.9240   35.9160   19.5150 F   0  0  0  0  0  0  0  0  0  0  0  0
   35.2660   35.2300   19.1630 O   0  0  0  0  0  0  0  0  0  0  0  0
   34.3580   40.0680   22.8570 N   0  0  0  0  0  0  0  0  0  0  0  0
   34.4710   33.9620   21.3430 O   0  0  0  0  0  0  0  0  0  0  0  0
   34.3100   35.8630   22.6260 N   0  0  0  0  0  0  0  0  0  0  0  0
   34.1110   37.8570   23.9100 N   0  0  0  0  0  0  0  0  0  0  0  0
   33.8750   39.8350   25.1840 N   0  0  0  0  0  0  0  0  0  0  0  0
   39.2640   36.6990   17.3800 H   0  0  0  0  0  0  0  0  0  0  0  0
   35.2030   38.0220   19.4310 H   0  0  0  0  0  0  0  0  0  0  0  0
   35.7380   36.5610   14.8290 H   0  0  0  0  0  0  0  0  0  0  0  0
   34.3410   35.8320   16.7520 H   0  0  0  0  0  0  0  0  0  0  0  0
   34.7680   40.1060   20.8090 H   0  0  0  0  0  0  0  0  0  0  0  0
   33.8920   40.8670   25.2720 H   0  0  0  0  0  0  0  0  0  0  0  0
   38.2840   37.1060   14.9900 F   0  0  0  0  0  0  0  0  0  0  0  0
   33.4790   40.8110   28.2900 C   0  0  0  0  0  0  0  0  0  0  0  0
   32.7300   39.8170   27.3940 C   0  0  0  0  0  0  0  0  0  0  0  0
   33.6370   39.0290   26.4270 C   0  0  0  0  0  0  0  0  0  0  0  0
   34.9720   38.6190   27.0840 C   0  0  0  0  0  0  0  0  0  0  0  0
   35.5940   39.7550   27.8980 C   0  0  0  0  0  0  0  0  0  0  0  0
   34.6600   40.2410   28.8910 O   0  0  0  0  0  0  0  0  0  0  0  0
   32.8630   41.0880   29.1770 H   0  0  0  0  0  0  0  0  0  0  0  0
   33.7810   41.7130   27.7130 H   0  0  0  0  0  0  0  0  0  0  0  0
   31.9560   40.3760   26.8100 H   0  0  0  0  0  0  0  0  0  0  0  0
   32.1950   39.0690   28.0320 H   0  0  0  0  0  0  0  0  0  0  0  0
   33.0840   38.0920   26.1220 H   0  0  0  0  0  0  0  0  0  0  0  0
   34.7630   37.7460   27.7520 H   0  0  0  0  0  0  0  0  0  0  0  0
   35.6910   38.2820   26.2980 H   0  0  0  0  0  0  0  0  0  0  0  0
   36.4400   39.3950   28.5260 H   0  0  0  0  0  0  0  0  0  0  0  0
   35.8920   40.6040   27.2420 H   0  0  0  0  0  0  0  0  0  0  0  0
   33.9630   35.0630   23.8560 C   0  0  0  0  0  0  0  0  0  0  0  0
   34.3880   34.0320   23.7010 H   0  0  0  0  0  0  0  0  0  0  0  0
   34.4600   35.5580   24.7420 H   0  0  0  0  0  0  0  0  0  0  0  0
   32.4500   35.0080   24.0850 C   0  0  0  0  0  0  0  0  0  0  0  0
   32.1040   36.0020   24.4940 H   0  0  0  0  0  0  0  0  0  0  0  0
   31.9050   34.8930   23.1090 H   0  0  0  0  0  0  0  0  0  0  0  0
   31.9290   33.7180   25.1800 S   0  0  0  0  0  0  0  0  0  0  0  0
   32.4580   33.9040   26.5480 O   0  0  0  0  0  0  0  0  0  0  0  0
   32.3660   32.4170   24.6230 O   0  0  0  0  0  0  0  0  0  0  0  0
   30.1960   33.8260   25.1720 C   0  0  0  0  0  0  0  0  0  0  0  0
   29.7500   33.5490   24.1820 H   0  0  0  0  0  0  0  0  0  0  0  0
   29.7260   33.1600   25.9390 H   0  0  0  0  0  0  0  0  0  0  0  0
   29.8310   34.8650   25.3910 H   0  0  0  0  0  0  0  0  0  0  0  0
  1  3  2  0  0  0  0
  1  7  1  0  0  0  0
  1 21  1  0  0  0  0
  2 12  1  0  0  0  0
  2 17  2  0  0  0  0
  2 18  1  0  0  0  0
  3 13  1  0  0  0  0
  3 14  1  0  0  0  0
  4 16  2  0  0  0  0
  4 19  1  0  0  0  0
  4 20  1  0  0  0  0
  5  6  1  0  0  0  0
  5 10  1  0  0  0  0
  5 11  2  0  0  0  0
  6 12  2  0  0  0  0
  6 22  1  0  0  0  0
  7  8  2  0  0  0  0
  7 27  1  0  0  0  0
  8  9  1  0  0  0  0
  8 23  1  0  0  0  0
  9 13  2  0  0  0  0
  9 24  1  0  0  0  0
 10 18  1  0  0  0  0
 10 19  2  0  0  0  0
 11 16  1  0  0  0  0
 11 25  1  0  0  0  0
 12 15  1  0  0  0  0
 13 15  1  0  0  0  0
 18 43  1  0  0  0  0
 20 26  1  0  0  0  0
 20 30  1  0  0  0  0
 28 29  1  0  0  0  0
 28 33  1  0  0  0  0
 28 34  1  0  0  0  0
 28 35  1  0  0  0  0
 29 30  1  0  0  0  0
 29 36  1  0  0  0  0
 29 37  1  0  0  0  0
 30 31  1  0  0  0  0
 30 38  1  0  0  0  0
 31 32  1  0  0  0  0
 31 39  1  0  0  0  0
 31 40  1  0  0  0  0
 32 33  1  0  0  0  0
 32 41  1  0  0  0  0
 32 42  1  0  0  0  0
 43 44  1  0  0  0  0
 43 45  1  0  0  0  0
 43 46  1  0  0  0  0
 46 47  1  0  0  0  0
 46 48  1  0  0  0  0
 46 49  1  0  0  0  0
 49 50  2  0  0  0  0
 49 51  2  0  0  0  0
 49 52  1  0  0  0  0
 52 53  1  0  0  0  0
 52 54  1  0  0  0  0
 52 55  1  0  0  0  0
M  END
$$$$
