p38a_3fmk
 OpenBabel02232411163D
Structure written by MMmdl.
 46 49  0  0  1  0  0  0  0  0999 V2000
   37.4850   36.0740   18.1710 C   0  0  0  0  0  0  0  0  0  0  0  0
   38.2810   36.5400   17.1290 C   0  0  0  0  0  0  0  0  0  0  0  0
   34.0830   35.1010   23.6730 C   0  0  0  0  0  0  0  0  0  0  0  0
   36.3020   36.4110   15.6650 C   0  0  0  0  0  0  0  0  0  0  0  0
   34.6260   39.4200   21.3770 C   0  0  0  0  0  0  0  0  0  0  0  0
   33.7890   39.2420   26.1610 C   0  0  1  0  0  0  0  0  0  0  0  0
   32.7340   40.0360   26.9990 C   0  0  0  0  0  0  0  0  0  0  0  0
   34.1540   39.2560   23.6670 C   0  0  0  0  0  0  0  0  0  0  0  0
   34.6040   35.1240   21.2020 C   0  0  0  0  0  0  0  0  0  0  0  0
   35.0240   35.9670   20.0520 C   0  0  0  0  0  0  0  0  0  0  0  0
   35.0180   37.3200   20.0590 C   0  0  0  0  0  0  0  0  0  0  0  0
   36.1240   35.7520   17.9760 C   0  0  0  0  0  0  0  0  0  0  0  0
   35.5270   35.9280   16.7250 C   0  0  0  0  0  0  0  0  0  0  0  0
   34.6750   38.0040   21.2750 C   0  0  0  0  0  0  0  0  0  0  0  0
   34.4020   37.2570   22.4600 C   0  0  0  0  0  0  0  0  0  0  0  0
   33.8320   39.9230   24.8340 N   0  0  0  0  0  0  0  0  0  0  0  0
   37.6470   36.7100   15.8910 C   0  0  0  0  0  0  0  0  0  0  0  0
   38.3550   37.2240   14.8870 F   0  0  0  0  0  0  0  0  0  0  0  0
   38.0010   35.9310   19.3850 F   0  0  0  0  0  0  0  0  0  0  0  0
   35.3860   35.1330   18.9950 O   0  0  0  0  0  0  0  0  0  0  0  0
   34.4510   33.9220   21.1800 O   0  0  0  0  0  0  0  0  0  0  0  0
   34.3700   35.8550   22.4200 N   0  0  0  0  0  0  0  0  0  0  0  0
   34.1610   37.8780   23.6620 N   0  0  0  0  0  0  0  0  0  0  0  0
   34.3800   40.0570   22.5330 N   0  0  0  0  0  0  0  0  0  0  0  0
   35.1640   39.2560   26.8290 C   0  0  0  0  0  0  0  0  0  0  0  0
   32.0860   39.1720   28.0040 N   0  0  0  0  0  0  0  0  0  0  0  0
   30.9610   38.4480   27.7530 N   0  0  0  0  0  0  0  0  0  0  0  0
   30.7190   37.7890   28.9200 C   0  0  0  0  0  0  0  0  0  0  0  0
   31.7260   38.1330   29.8630 N   0  0  0  0  0  0  0  0  0  0  0  0
   32.5360   38.9630   29.2860 N   0  0  0  0  0  0  0  0  0  0  0  0
   39.3330   36.8010   17.2790 H   0  0  0  0  0  0  0  0  0  0  0  0
   34.8190   35.3920   24.4720 H   0  0  0  0  0  0  0  0  0  0  0  0
   33.0480   35.3450   24.0370 H   0  0  0  0  0  0  0  0  0  0  0  0
   34.1580   33.9980   23.4890 H   0  0  0  0  0  0  0  0  0  0  0  0
   35.8430   36.5660   14.6870 H   0  0  0  0  0  0  0  0  0  0  0  0
   34.7920   40.0450   20.4850 H   0  0  0  0  0  0  0  0  0  0  0  0
   33.4390   38.1800   26.0210 H   0  0  0  0  0  0  0  0  0  0  0  0
   33.2360   40.8990   27.5240 H   0  0  0  0  0  0  0  0  0  0  0  0
   31.9420   40.4530   26.3090 H   0  0  0  0  0  0  0  0  0  0  0  0
   35.2790   37.9200   19.1860 H   0  0  0  0  0  0  0  0  0  0  0  0
   34.4650   35.7100   16.5700 H   0  0  0  0  0  0  0  0  0  0  0  0
   33.9840   40.9500   24.8850 H   0  0  0  0  0  0  0  0  0  0  0  0
   35.8860   38.6510   26.2340 H   0  0  0  0  0  0  0  0  0  0  0  0
   35.5550   40.2970   26.9210 H   0  0  0  0  0  0  0  0  0  0  0  0
   35.1020   38.8170   27.8520 H   0  0  0  0  0  0  0  0  0  0  0  0
   29.8940   37.1080   29.1200 H   0  0  0  0  0  0  0  0  0  0  0  0
  1  2  2  0  0  0  0
  1 12  1  0  0  0  0
  1 19  1  0  0  0  0
  2 17  1  0  0  0  0
  2 31  1  0  0  0  0
  3 22  1  0  0  0  0
  3 32  1  0  0  0  0
  3 33  1  0  0  0  0
  3 34  1  0  0  0  0
  4 13  1  0  0  0  0
  4 17  2  0  0  0  0
  4 35  1  0  0  0  0
  5 14  2  0  0  0  0
  5 24  1  0  0  0  0
  5 36  1  0  0  0  0
  6  7  1  0  0  0  0
  6 16  1  0  0  0  0
  6 25  1  0  0  0  0
  6 37  1  6  0  0  0
  7 26  1  0  0  0  0
  7 38  1  0  0  0  0
  7 39  1  0  0  0  0
  8 16  1  0  0  0  0
  8 23  1  0  0  0  0
  8 24  2  0  0  0  0
  9 10  1  0  0  0  0
  9 21  2  0  0  0  0
  9 22  1  0  0  0  0
 10 11  2  0  0  0  0
 10 20  1  0  0  0  0
 11 14  1  0  0  0  0
 11 40  1  0  0  0  0
 12 13  2  0  0  0  0
 12 20  1  0  0  0  0
 13 41  1  0  0  0  0
 14 15  1  0  0  0  0
 15 22  1  0  0  0  0
 15 23  2  0  0  0  0
 16 42  1  0  0  0  0
 17 18  1  0  0  0  0
 25 43  1  0  0  0  0
 25 44  1  0  0  0  0
 25 45  1  0  0  0  0
 26 27  1  0  0  0  0
 26 30  1  0  0  0  0
 27 28  2  0  0  0  0
 28 29  1  0  0  0  0
 28 46  1  0  0  0  0
 29 30  2  0  0  0  0
M  END
$$$$
