1h1s
 OpenBabel02232411153D
Structure written by MMmdl.
 50 53  0  0  0  0  0  0  0  0999 V2000
    1.7800   28.8890    6.7970 C   0  0  0  0  0  0  0  0  0  0  0  0
   -1.6610   31.5100    8.0080 C   0  0  0  0  0  0  0  0  0  0  0  0
   -0.1860   26.0160    8.9030 C   0  0  0  0  0  0  0  0  0  0  0  0
   -0.9250   25.3130   10.0490 C   0  0  0  0  0  0  0  0  0  0  0  0
   -0.7080   23.7920    9.8680 C   0  0  0  0  0  0  0  0  0  0  0  0
   -1.3050   22.9960   11.0390 C   0  0  0  0  0  0  0  0  0  0  0  0
   -0.7550   23.4880   12.3870 C   0  0  0  0  0  0  0  0  0  0  0  0
   -1.0110   24.9920   12.5710 C   0  0  0  0  0  0  0  0  0  0  0  0
   -0.4070   25.8020   11.4150 C   0  0  0  0  0  0  0  0  0  0  0  0
    4.2730   25.3680    7.8840 C   0  0  0  0  0  0  0  0  0  0  0  0
    5.1640   24.9060    6.9040 C   0  0  0  0  0  0  0  0  0  0  0  0
    5.3680   25.6810    5.7550 C   0  0  0  0  0  0  0  0  0  0  0  0
    4.6540   26.8610    5.5580 C   0  0  0  0  0  0  0  0  0  0  0  0
    1.0620   27.9370    7.5110 N   0  0  0  0  0  0  0  0  0  0  0  0
   -0.1220   28.2720    8.0850 C   0  0  0  0  0  0  0  0  0  0  0  0
   -0.7960   27.3700    8.8120 O   0  0  0  0  0  0  0  0  0  0  0  0
   -0.6340   29.5880    7.9300 C   0  0  0  0  0  0  0  0  0  0  0  0
   -1.7720   30.2420    8.4150 N   0  0  0  0  0  0  0  0  0  0  0  0
   -0.4540   31.7380    7.2580 N   0  0  0  0  0  0  0  0  0  0  0  0
    0.1990   30.5130    7.1790 C   0  0  0  0  0  0  0  0  0  0  0  0
    1.3920   30.1950    6.5730 N   0  0  0  0  0  0  0  0  0  0  0  0
    2.9940   28.4810    6.2350 N   0  0  0  0  0  0  0  0  0  0  0  0
    3.7170   27.2910    6.5250 C   0  0  0  0  0  0  0  0  0  0  0  0
    3.5710   26.5570    7.7180 C   0  0  0  0  0  0  0  0  0  0  0  0
   -2.3570   32.3170    8.2130 H   0  0  0  0  0  0  0  0  0  0  0  0
    0.8990   26.1170    9.1250 H   0  0  0  0  0  0  0  0  0  0  0  0
   -0.3680   25.5400    7.9180 H   0  0  0  0  0  0  0  0  0  0  0  0
   -2.0180   25.5320    9.9900 H   0  0  0  0  0  0  0  0  0  0  0  0
   -1.1870   23.4600    8.9220 H   0  0  0  0  0  0  0  0  0  0  0  0
    0.3880   23.5780    9.8120 H   0  0  0  0  0  0  0  0  0  0  0  0
   -2.4100   23.1130   11.0370 H   0  0  0  0  0  0  0  0  0  0  0  0
   -1.0560   21.9160   10.9160 H   0  0  0  0  0  0  0  0  0  0  0  0
   -1.2410   22.9240   13.2150 H   0  0  0  0  0  0  0  0  0  0  0  0
    0.3430   23.3000   12.4180 H   0  0  0  0  0  0  0  0  0  0  0  0
   -2.1080   25.1780   12.6360 H   0  0  0  0  0  0  0  0  0  0  0  0
   -0.5430   25.3270   13.5260 H   0  0  0  0  0  0  0  0  0  0  0  0
    0.7050   25.6970   11.4580 H   0  0  0  0  0  0  0  0  0  0  0  0
   -0.6640   26.8780   11.5440 H   0  0  0  0  0  0  0  0  0  0  0  0
    4.0940   24.8020    8.8040 H   0  0  0  0  0  0  0  0  0  0  0  0
    6.0850   25.3780    4.9820 H   0  0  0  0  0  0  0  0  0  0  0  0
    4.8190   27.4440    4.6510 H   0  0  0  0  0  0  0  0  0  0  0  0
   -0.1830   32.6170    6.7920 H   0  0  0  0  0  0  0  0  0  0  0  0
    3.4850   29.1410    5.5840 H   0  0  0  0  0  0  0  0  0  0  0  0
    2.9020   26.8920    8.5110 H   0  0  0  0  0  0  0  0  0  0  0  0
    6.0130   23.4180    7.1050 S   0  0  0  0  0  0  0  0  0  0  0  0
    6.0110   22.6420    5.8550 O   0  0  0  0  0  0  0  0  0  0  0  0
    7.3370   23.7060    7.6690 O   0  0  0  0  0  0  0  0  0  0  0  0
    5.1540   22.5060    8.2430 N   0  0  0  0  0  0  0  0  0  0  0  0
    4.2530   22.0670    8.0200 H   0  0  0  0  0  0  0  0  0  0  0  0
    5.1980   22.8050    9.2590 H   0  0  0  0  0  0  0  0  0  0  0  0
  1 14  2  0  0  0  0
  1 21  1  0  0  0  0
  1 22  1  0  0  0  0
  2 18  2  0  0  0  0
  2 19  1  0  0  0  0
  2 25  1  0  0  0  0
  3  4  1  0  0  0  0
  3 16  1  0  0  0  0
  3 26  1  0  0  0  0
  3 27  1  0  0  0  0
  4  5  1  0  0  0  0
  4  9  1  0  0  0  0
  4 28  1  0  0  0  0
  5  6  1  0  0  0  0
  5 29  1  0  0  0  0
  5 30  1  0  0  0  0
  6  7  1  0  0  0  0
  6 31  1  0  0  0  0
  6 32  1  0  0  0  0
  7  8  1  0  0  0  0
  7 33  1  0  0  0  0
  7 34  1  0  0  0  0
  8  9  1  0  0  0  0
  8 35  1  0  0  0  0
  8 36  1  0  0  0  0
  9 37  1  0  0  0  0
  9 38  1  0  0  0  0
 10 11  2  0  0  0  0
 10 24  1  0  0  0  0
 10 39  1  0  0  0  0
 11 12  1  0  0  0  0
 11 45  1  0  0  0  0
 12 13  2  0  0  0  0
 12 40  1  0  0  0  0
 13 23  1  0  0  0  0
 13 41  1  0  0  0  0
 14 15  1  0  0  0  0
 15 16  1  0  0  0  0
 15 17  2  0  0  0  0
 17 18  1  0  0  0  0
 17 20  1  0  0  0  0
 19 20  1  0  0  0  0
 19 42  1  0  0  0  0
 20 21  2  0  0  0  0
 22 23  1  0  0  0  0
 22 43  1  0  0  0  0
 23 24  2  0  0  0  0
 24 44  1  0  0  0  0
 45 46  2  0  0  0  0
 45 47  2  0  0  0  0
 45 48  1  0  0  0  0
 48 49  1  0  0  0  0
 48 50  1  0  0  0  0
M  END
$$$$
