p38a_2u
 OpenBabel02232411163D
Structure written by MMmdl.
 64 68  0  0  0  0  0  0  0  0999 V2000
   38.3180   36.5840   17.0880 C   0  0  0  0  0  0  0  0  0  0  0  0
   34.5870   35.0440   21.1240 C   0  0  0  0  0  0  0  0  0  0  0  0
   37.5330   36.1120   18.1360 C   0  0  0  0  0  0  0  0  0  0  0  0
   33.9790   39.0620   23.7520 C   0  0  0  0  0  0  0  0  0  0  0  0
   34.6630   37.9010   21.3520 C   0  0  0  0  0  0  0  0  0  0  0  0
   35.0710   37.2860   20.1180 C   0  0  0  0  0  0  0  0  0  0  0  0
   37.6730   36.7570   15.8560 C   0  0  0  0  0  0  0  0  0  0  0  0
   36.3240   36.4620   15.6430 C   0  0  0  0  0  0  0  0  0  0  0  0
   35.5600   35.9740   16.7080 C   0  0  0  0  0  0  0  0  0  0  0  0
   34.3050   37.1010   22.4820 C   0  0  0  0  0  0  0  0  0  0  0  0
   34.6150   39.3120   21.5120 C   0  0  0  0  0  0  0  0  0  0  0  0
   35.0680   35.9370   20.0390 C   0  0  0  0  0  0  0  0  0  0  0  0
   36.1720   35.7910   17.9510 C   0  0  0  0  0  0  0  0  0  0  0  0
   38.0600   35.9660   19.3450 F   0  0  0  0  0  0  0  0  0  0  0  0
   35.4530   35.1410   18.9630 O   0  0  0  0  0  0  0  0  0  0  0  0
   34.2860   39.9080   22.6670 N   0  0  0  0  0  0  0  0  0  0  0  0
   34.4590   33.8420   21.0190 O   0  0  0  0  0  0  0  0  0  0  0  0
   34.2610   35.6970   22.3700 N   0  0  0  0  0  0  0  0  0  0  0  0
   33.9980   37.6850   23.6840 N   0  0  0  0  0  0  0  0  0  0  0  0
   33.5630   39.6710   24.9190 N   0  0  0  0  0  0  0  0  0  0  0  0
   39.3710   36.8440   17.2300 H   0  0  0  0  0  0  0  0  0  0  0  0
   35.3770   37.9330   19.2950 H   0  0  0  0  0  0  0  0  0  0  0  0
   35.8550   36.6220   14.6700 H   0  0  0  0  0  0  0  0  0  0  0  0
   34.4970   35.7570   16.5650 H   0  0  0  0  0  0  0  0  0  0  0  0
   34.8520   39.9710   20.6600 H   0  0  0  0  0  0  0  0  0  0  0  0
   33.6670   40.7040   25.0070 H   0  0  0  0  0  0  0  0  0  0  0  0
   38.3710   37.2680   14.8460 F   0  0  0  0  0  0  0  0  0  0  0  0
   32.4220   39.0330   28.5020 C   0  0  0  0  0  0  0  0  0  0  0  0
   32.4060   39.6130   27.0830 C   0  0  0  0  0  0  0  0  0  0  0  0
   33.5010   38.9440   26.2230 C   0  0  0  0  0  0  0  0  0  0  0  0
   34.8720   39.0140   26.9330 C   0  0  0  0  0  0  0  0  0  0  0  0
   34.7580   38.4730   28.3620 C   0  0  0  0  0  0  0  0  0  0  0  0
   33.7270   39.1600   29.1110 O   0  0  0  0  0  0  0  0  0  0  0  0
   32.1250   37.9580   28.4960 H   0  0  0  0  0  0  0  0  0  0  0  0
   31.7780   39.6280   29.1890 H   0  0  0  0  0  0  0  0  0  0  0  0
   32.5820   40.7140   27.1300 H   0  0  0  0  0  0  0  0  0  0  0  0
   31.4070   39.4330   26.6170 H   0  0  0  0  0  0  0  0  0  0  0  0
   33.2210   37.8700   26.0380 H   0  0  0  0  0  0  0  0  0  0  0  0
   35.6150   38.4030   26.3680 H   0  0  0  0  0  0  0  0  0  0  0  0
   35.2250   40.0730   26.9590 H   0  0  0  0  0  0  0  0  0  0  0  0
   34.5310   37.3820   28.3570 H   0  0  0  0  0  0  0  0  0  0  0  0
   35.6730   38.7000   28.9560 H   0  0  0  0  0  0  0  0  0  0  0  0
   31.8570   34.0220   24.8870 C   0  0  0  0  0  0  0  0  0  0  0  0
   32.3350   35.1040   23.8960 C   0  0  0  0  0  0  0  0  0  0  0  0
   33.7880   34.8050   23.4940 C   0  0  0  0  0  0  0  0  0  0  0  0
   34.6900   34.8610   24.7380 C   0  0  0  0  0  0  0  0  0  0  0  0
   34.2250   33.7790   25.7400 C   0  0  0  0  0  0  0  0  0  0  0  0
   31.7850   33.0360   24.3590 H   0  0  0  0  0  0  0  0  0  0  0  0
   30.8410   34.3300   25.2540 H   0  0  0  0  0  0  0  0  0  0  0  0
   32.2670   36.1010   24.4020 H   0  0  0  0  0  0  0  0  0  0  0  0
   31.6600   35.1120   23.0120 H   0  0  0  0  0  0  0  0  0  0  0  0
   33.8300   33.7500   23.0820 H   0  0  0  0  0  0  0  0  0  0  0  0
   35.7540   34.6810   24.4710 H   0  0  0  0  0  0  0  0  0  0  0  0
   34.6090   35.8620   25.2330 H   0  0  0  0  0  0  0  0  0  0  0  0
   34.4300   32.7630   25.3130 H   0  0  0  0  0  0  0  0  0  0  0  0
   34.8100   33.9210   26.6890 H   0  0  0  0  0  0  0  0  0  0  0  0
   32.7750   33.9380   26.0600 N   0  0  0  0  0  0  0  0  0  0  0  0
   32.1500   33.3340   27.5350 S   0  0  0  0  0  0  0  0  0  0  0  0
   33.1440   32.4410   28.1630 O   0  0  0  0  0  0  0  0  0  0  0  0
   30.8810   32.6240   27.2740 O   0  0  0  0  0  0  0  0  0  0  0  0
   31.9040   34.7640   28.4740 C   0  0  0  0  0  0  0  0  0  0  0  0
   32.8340   35.3870   28.5400 H   0  0  0  0  0  0  0  0  0  0  0  0
   31.1140   35.4300   28.0310 H   0  0  0  0  0  0  0  0  0  0  0  0
   31.5840   34.5450   29.5250 H   0  0  0  0  0  0  0  0  0  0  0  0
  1  3  2  0  0  0  0
  1  7  1  0  0  0  0
  1 21  1  0  0  0  0
  2 12  1  0  0  0  0
  2 17  2  0  0  0  0
  2 18  1  0  0  0  0
  3 13  1  0  0  0  0
  3 14  1  0  0  0  0
  4 16  2  0  0  0  0
  4 19  1  0  0  0  0
  4 20  1  0  0  0  0
  5  6  1  0  0  0  0
  5 10  1  0  0  0  0
  5 11  2  0  0  0  0
  6 12  2  0  0  0  0
  6 22  1  0  0  0  0
  7  8  2  0  0  0  0
  7 27  1  0  0  0  0
  8  9  1  0  0  0  0
  8 23  1  0  0  0  0
  9 13  2  0  0  0  0
  9 24  1  0  0  0  0
 10 18  1  0  0  0  0
 10 19  2  0  0  0  0
 11 16  1  0  0  0  0
 11 25  1  0  0  0  0
 12 15  1  0  0  0  0
 13 15  1  0  0  0  0
 18 45  1  0  0  0  0
 20 26  1  0  0  0  0
 20 30  1  0  0  0  0
 28 29  1  0  0  0  0
 28 33  1  0  0  0  0
 28 34  1  0  0  0  0
 28 35  1  0  0  0  0
 29 30  1  0  0  0  0
 29 36  1  0  0  0  0
 29 37  1  0  0  0  0
 30 31  1  0  0  0  0
 30 38  1  0  0  0  0
 31 32  1  0  0  0  0
 31 39  1  0  0  0  0
 31 40  1  0  0  0  0
 32 33  1  0  0  0  0
 32 41  1  0  0  0  0
 32 42  1  0  0  0  0
 43 44  1  0  0  0  0
 43 48  1  0  0  0  0
 43 49  1  0  0  0  0
 43 57  1  0  0  0  0
 44 45  1  0  0  0  0
 44 50  1  0  0  0  0
 44 51  1  0  0  0  0
 45 46  1  0  0  0  0
 45 52  1  0  0  0  0
 46 47  1  0  0  0  0
 46 53  1  0  0  0  0
 46 54  1  0  0  0  0
 47 55  1  0  0  0  0
 47 56  1  0  0  0  0
 47 57  1  0  0  0  0
 57 58  1  0  0  0  0
 58 59  2  0  0  0  0
 58 60  2  0  0  0  0
 58 61  1  0  0  0  0
 61 62  1  0  0  0  0
 61 63  1  0  0  0  0
 61 64  1  0  0  0  0
M  END
$$$$
