CAT-17g
                    3D
 Schrodinger Suite 2022-3.
 42 45  0  0  1  0  0  0  0  0999 V2000
   11.7970   -2.3880    1.3000 C   0  0  0  0  0  0  0  0  0  0  0  0
   13.0640   -2.8240    0.6800 N   0  0  0  0  0  0  0  0  0  0  0  0
   14.2700   -2.7870    1.3940 C   0  0  0  0  0  0  0  0  0  0  0  0
   14.3960   -2.6730    2.7460 N   0  0  0  0  0  0  0  0  0  0  0  0
   15.3320   -2.9760    0.5300 N   0  3  0  0  0  0  0  0  0  0  0  0
   14.8720   -3.2010   -0.8890 C   0  0  1  0  0  0  0  0  0  0  0  0
   15.4450   -2.0800   -1.7360 C   0  0  0  0  0  0  0  0  0  0  0  0
   16.4140   -2.3290   -2.7120 C   0  0  0  0  0  0  0  0  0  0  0  0
   16.8880   -1.2740   -3.5030 C   0  0  0  0  0  0  0  0  0  0  0  0
   16.4130    0.0240   -3.3150 C   0  0  0  0  0  0  0  0  0  0  0  0
   15.4730    0.2870   -2.3020 C   0  0  0  0  0  0  0  0  0  0  0  0
   14.9820    1.6580   -2.0530 C   0  0  0  0  0  0  0  0  0  0  0  0
   14.2660    2.3610   -3.0450 C   0  0  0  0  0  0  0  0  0  0  0  0
   13.7590    3.6050   -2.8410 N   0  0  0  0  0  0  0  0  0  0  0  0
   13.9530    4.2040   -1.6430 C   0  0  0  0  0  0  0  0  0  0  0  0
   14.6740    3.5510   -0.6200 C   0  0  0  0  0  0  0  0  0  0  0  0
   14.8500    4.1640    0.5480 F   0  0  0  0  0  0  0  0  0  0  0  0
   15.1970    2.2730   -0.8090 C   0  0  0  0  0  0  0  0  0  0  0  0
   14.9920   -0.7680   -1.5160 C   0  0  0  0  0  0  0  0  0  0  0  0
   15.1170   -4.6060   -1.4080 C   0  0  0  0  0  0  0  0  0  0  0  0
   16.3220   -5.4240   -0.9660 C   0  0  0  0  0  0  0  0  0  0  0  0
   14.9360   -5.8260   -0.5120 C   0  0  0  0  0  0  0  0  0  0  0  0
   13.3170   -3.0320   -0.7550 C   0  0  0  0  0  0  0  0  0  0  0  0
   12.4400   -3.0660   -1.5580 O   0  0  0  0  0  0  0  0  0  0  0  0
   11.6140   -2.9710    2.2440 H   0  0  0  0  0  0  0  0  0  0  0  0
   11.8680   -1.2950    1.5430 H   0  0  0  0  0  0  0  0  0  0  0  0
   10.9470   -2.5700    0.5900 H   0  0  0  0  0  0  0  0  0  0  0  0
   13.6660   -2.1910    3.3260 H   0  0  0  0  0  0  0  0  0  0  0  0
   16.2960   -3.2010    0.8820 H   0  0  0  0  0  0  0  0  0  0  0  0
   16.8080   -3.3370   -2.8550 H   0  0  0  0  0  0  0  0  0  0  0  0
   17.6430   -1.4760   -4.2700 H   0  0  0  0  0  0  0  0  0  0  0  0
   16.7790    0.8360   -3.9500 H   0  0  0  0  0  0  0  0  0  0  0  0
   14.0870    1.9040   -4.0320 H   0  0  0  0  0  0  0  0  0  0  0  0
   13.5190    5.2090   -1.5050 H   0  0  0  0  0  0  0  0  0  0  0  0
   15.7480    1.7460   -0.0260 H   0  0  0  0  0  0  0  0  0  0  0  0
   14.2710   -0.5630   -0.7260 H   0  0  0  0  0  0  0  0  0  0  0  0
   14.7960   -4.6950   -2.4640 H   0  0  0  0  0  0  0  0  0  0  0  0
   16.8350   -6.0360   -1.7220 H   0  0  0  0  0  0  0  0  0  0  0  0
   17.0200   -4.9840   -0.2420 H   0  0  0  0  0  0  0  0  0  0  0  0
   14.6510   -5.6800    0.5370 H   0  0  0  0  0  0  0  0  0  0  0  0
   14.4720   -6.7250   -0.9480 H   0  0  0  0  0  0  0  0  0  0  0  0
   15.3660   -2.5780    3.1520 H   0  0  0  0  0  0  0  0  0  0  0  0
  1  2  1  0  0  0  0
  1 25  1  0  0  0  0
  1 26  1  0  0  0  0
  1 27  1  0  0  0  0
  2  3  1  0  0  0  0
  2 23  1  0  0  0  0
  3  4  1  0  0  0  0
  3  5  2  0  0  0  0
  4 28  1  0  0  0  0
  4 42  1  0  0  0  0
  5  6  1  0  0  0  0
  5 29  1  0  0  0  0
  6  7  1  0  0  0  0
  6 20  1  0  0  0  0
  6 23  1  0  0  0  0
  7  8  2  0  0  0  0
  7 19  1  0  0  0  0
  8  9  1  0  0  0  0
  8 30  1  0  0  0  0
  9 10  2  0  0  0  0
  9 31  1  0  0  0  0
 10 11  1  0  0  0  0
 10 32  1  0  0  0  0
 11 12  1  0  0  0  0
 11 19  2  0  0  0  0
 12 13  2  0  0  0  0
 12 18  1  0  0  0  0
 13 14  1  0  0  0  0
 13 33  1  0  0  0  0
 14 15  2  0  0  0  0
 15 16  1  0  0  0  0
 15 34  1  0  0  0  0
 16 18  2  0  0  0  0
 16 17  1  0  0  0  0
 18 35  1  0  0  0  0
 19 36  1  0  0  0  0
 20 21  1  0  0  0  0
 20 22  1  0  0  0  0
 20 37  1  0  0  0  0
 21 22  1  0  0  0  0
 21 38  1  0  0  0  0
 21 39  1  0  0  0  0
 22 40  1  0  0  0  0
 22 41  1  0  0  0  0
 23 24  2  0  0  0  0
M  CHG  1   5   1
M  END
$$$$
