p38a_3flw
 OpenBabel02232411163D
Structure written by MMmdl.
 49 51  0  0  0  0  0  0  0  0999 V2000
   38.2480   36.5050   17.2160 C   0  0  0  0  0  0  0  0  0  0  0  0
   37.5950   36.6610   15.9860 C   0  0  0  0  0  0  0  0  0  0  0  0
   31.6550   38.7080   25.7350 C   0  0  0  0  0  0  0  0  0  0  0  0
   30.8370   39.2090   24.5400 C   0  0  0  0  0  0  0  0  0  0  0  0
   33.7960   38.8870   27.1140 C   0  0  0  0  0  0  0  0  0  0  0  0
   33.6640   35.1640   23.7100 C   0  0  0  0  0  0  0  0  0  0  0  0
   38.0070   35.9290   19.4840 F   0  0  0  0  0  0  0  0  0  0  0  0
   37.4670   36.0630   18.2800 C   0  0  0  0  0  0  0  0  0  0  0  0
   38.2930   37.1480   14.9620 F   0  0  0  0  0  0  0  0  0  0  0  0
   36.2420   36.3730   15.7910 C   0  0  0  0  0  0  0  0  0  0  0  0
   35.4820   35.9180   16.8740 C   0  0  0  0  0  0  0  0  0  0  0  0
   36.0990   35.7540   18.1170 C   0  0  0  0  0  0  0  0  0  0  0  0
   35.3780   35.1470   19.1550 O   0  0  0  0  0  0  0  0  0  0  0  0
   35.0120   35.9900   20.2060 C   0  0  0  0  0  0  0  0  0  0  0  0
   35.0650   37.3410   20.2250 C   0  0  0  0  0  0  0  0  0  0  0  0
   34.6770   38.0310   21.4230 C   0  0  0  0  0  0  0  0  0  0  0  0
   34.7110   39.4480   21.5360 C   0  0  0  0  0  0  0  0  0  0  0  0
   34.3860   40.0940   22.6600 N   0  0  0  0  0  0  0  0  0  0  0  0
   34.5050   35.1600   21.3300 C   0  0  0  0  0  0  0  0  0  0  0  0
   34.3670   33.9560   21.3090 O   0  0  0  0  0  0  0  0  0  0  0  0
   34.1610   35.9010   22.5150 N   0  0  0  0  0  0  0  0  0  0  0  0
   34.2470   37.3030   22.5700 C   0  0  0  0  0  0  0  0  0  0  0  0
   33.9040   37.9340   23.7430 N   0  0  0  0  0  0  0  0  0  0  0  0
   33.9750   39.3110   23.7650 C   0  0  0  0  0  0  0  0  0  0  0  0
   33.7090   40.0200   24.9140 N   0  0  0  0  0  0  0  0  0  0  0  0
   32.8810   39.5770   26.0780 C   0  0  0  0  0  0  0  0  0  0  0  0
   33.3240   39.1100   28.5550 C   0  0  0  0  0  0  0  0  0  0  0  0
   33.7230   40.4010   29.0480 O   0  0  0  0  0  0  0  0  0  0  0  0
   30.8190   40.6420   24.4780 O   0  0  0  0  0  0  0  0  0  0  0  0
   39.3060   36.7540   17.3410 H   0  0  0  0  0  0  0  0  0  0  0  0
   31.0050   38.6690   26.6430 H   0  0  0  0  0  0  0  0  0  0  0  0
   31.9790   37.6550   25.5170 H   0  0  0  0  0  0  0  0  0  0  0  0
   31.3240   38.9390   23.5750 H   0  0  0  0  0  0  0  0  0  0  0  0
   29.7960   38.8210   24.5940 H   0  0  0  0  0  0  0  0  0  0  0  0
   33.8360   37.7870   26.9110 H   0  0  0  0  0  0  0  0  0  0  0  0
   34.8360   39.2860   27.0140 H   0  0  0  0  0  0  0  0  0  0  0  0
   32.5940   35.4400   23.9110 H   0  0  0  0  0  0  0  0  0  0  0  0
   33.7330   34.0580   23.5440 H   0  0  0  0  0  0  0  0  0  0  0  0
   34.2730   35.4380   24.6140 H   0  0  0  0  0  0  0  0  0  0  0  0
   35.7680   36.5110   14.8160 H   0  0  0  0  0  0  0  0  0  0  0  0
   34.4150   35.7100   16.7410 H   0  0  0  0  0  0  0  0  0  0  0  0
   35.3980   37.9350   19.3710 H   0  0  0  0  0  0  0  0  0  0  0  0
   35.0000   40.0550   20.6630 H   0  0  0  0  0  0  0  0  0  0  0  0
   33.7310   41.0600   24.8470 H   0  0  0  0  0  0  0  0  0  0  0  0
   32.4960   40.5470   26.5180 H   0  0  0  0  0  0  0  0  0  0  0  0
   32.2200   39.0040   28.6550 H   0  0  0  0  0  0  0  0  0  0  0  0
   33.8530   38.4100   29.2470 H   0  0  0  0  0  0  0  0  0  0  0  0
   33.1650   41.1130   28.6170 H   0  0  0  0  0  0  0  0  0  0  0  0
   30.0580   40.9980   25.0170 H   0  0  0  0  0  0  0  0  0  0  0  0
  1  2  2  0  0  0  0
  1  8  1  0  0  0  0
  1 30  1  0  0  0  0
  2  9  1  0  0  0  0
  2 10  1  0  0  0  0
  3  4  1  0  0  0  0
  3 26  1  0  0  0  0
  3 31  1  0  0  0  0
  3 32  1  0  0  0  0
  4 29  1  0  0  0  0
  4 33  1  0  0  0  0
  4 34  1  0  0  0  0
  5 26  1  0  0  0  0
  5 27  1  0  0  0  0
  5 35  1  0  0  0  0
  5 36  1  0  0  0  0
  6 21  1  0  0  0  0
  6 37  1  0  0  0  0
  6 38  1  0  0  0  0
  6 39  1  0  0  0  0
  7  8  1  0  0  0  0
  8 12  2  0  0  0  0
 10 11  2  0  0  0  0
 10 40  1  0  0  0  0
 11 12  1  0  0  0  0
 11 41  1  0  0  0  0
 12 13  1  0  0  0  0
 13 14  1  0  0  0  0
 14 15  2  0  0  0  0
 14 19  1  0  0  0  0
 15 16  1  0  0  0  0
 15 42  1  0  0  0  0
 16 17  2  0  0  0  0
 16 22  1  0  0  0  0
 17 18  1  0  0  0  0
 17 43  1  0  0  0  0
 18 24  2  0  0  0  0
 19 20  2  0  0  0  0
 19 21  1  0  0  0  0
 21 22  1  0  0  0  0
 22 23  2  0  0  0  0
 23 24  1  0  0  0  0
 24 25  1  0  0  0  0
 25 26  1  0  0  0  0
 25 44  1  0  0  0  0
 26 45  1  0  0  0  0
 27 28  1  0  0  0  0
 27 46  1  0  0  0  0
 27 47  1  0  0  0  0
 28 48  1  0  0  0  0
 29 49  1  0  0  0  0
M  END
$$$$
