p38a_2r
 OpenBabel02232411163D
Structure written by MMmdl.
 56 59  0  0  0  0  0  0  0  0999 V2000
   36.3360   35.9640   15.9330 C   0  0  0  0  0  0  0  0  0  0  0  0
   34.3420   35.0300   21.3730 C   0  0  0  0  0  0  0  0  0  0  0  0
   35.6860   35.5090   17.0760 C   0  0  0  0  0  0  0  0  0  0  0  0
   33.6530   39.1640   23.7990 C   0  0  0  0  0  0  0  0  0  0  0  0
   34.6740   37.8700   21.5850 C   0  0  0  0  0  0  0  0  0  0  0  0
   35.2340   37.1820   20.4540 C   0  0  0  0  0  0  0  0  0  0  0  0
   37.6280   36.4760   16.1130 C   0  0  0  0  0  0  0  0  0  0  0  0
   38.2780   36.5090   17.3490 C   0  0  0  0  0  0  0  0  0  0  0  0
   37.5920   36.0740   18.4880 C   0  0  0  0  0  0  0  0  0  0  0  0
   34.0130   37.1540   22.6260 C   0  0  0  0  0  0  0  0  0  0  0  0
   34.7620   39.2810   21.7290 C   0  0  0  0  0  0  0  0  0  0  0  0
   35.0950   35.8390   20.3780 C   0  0  0  0  0  0  0  0  0  0  0  0
   36.2940   35.5750   18.3480 C   0  0  0  0  0  0  0  0  0  0  0  0
   34.4730   34.9800   16.9940 F   0  0  0  0  0  0  0  0  0  0  0  0
   35.5800   34.9780   19.3950 O   0  0  0  0  0  0  0  0  0  0  0  0
   34.2860   39.9350   22.7950 N   0  0  0  0  0  0  0  0  0  0  0  0
   34.1110   33.8440   21.2760 O   0  0  0  0  0  0  0  0  0  0  0  0
   33.8530   35.7600   22.5170 N   0  0  0  0  0  0  0  0  0  0  0  0
   33.5120   37.7960   23.7360 N   0  0  0  0  0  0  0  0  0  0  0  0
   33.1090   39.9110   24.8250 N   0  0  0  0  0  0  0  0  0  0  0  0
   35.8590   35.9470   14.9500 H   0  0  0  0  0  0  0  0  0  0  0  0
   35.7560   37.7740   19.6980 H   0  0  0  0  0  0  0  0  0  0  0  0
   39.2980   36.8950   17.4330 H   0  0  0  0  0  0  0  0  0  0  0  0
   38.0670   36.1460   19.4690 H   0  0  0  0  0  0  0  0  0  0  0  0
   35.2410   39.8830   20.9400 H   0  0  0  0  0  0  0  0  0  0  0  0
   33.4120   40.9080   24.8850 H   0  0  0  0  0  0  0  0  0  0  0  0
   38.2510   36.9850   15.0520 F   0  0  0  0  0  0  0  0  0  0  0  0
   33.1360   38.4360   28.3870 C   0  0  0  0  0  0  0  0  0  0  0  0
   33.7190   38.9020   27.0470 C   0  0  0  0  0  0  0  0  0  0  0  0
   32.5870   39.4230   26.1370 C   0  0  0  0  0  0  0  0  0  0  0  0
   31.4720   38.3750   25.9960 C   0  0  0  0  0  0  0  0  0  0  0  0
   30.9920   37.9430   27.3880 C   0  0  0  0  0  0  0  0  0  0  0  0
   32.0820   37.4650   28.2090 O   0  0  0  0  0  0  0  0  0  0  0  0
   32.7380   39.3010   28.9670 H   0  0  0  0  0  0  0  0  0  0  0  0
   33.8900   37.8630   28.9760 H   0  0  0  0  0  0  0  0  0  0  0  0
   34.2470   38.0550   26.5510 H   0  0  0  0  0  0  0  0  0  0  0  0
   34.4610   39.7170   27.2340 H   0  0  0  0  0  0  0  0  0  0  0  0
   32.1500   40.3550   26.6090 H   0  0  0  0  0  0  0  0  0  0  0  0
   30.6190   38.8070   25.4220 H   0  0  0  0  0  0  0  0  0  0  0  0
   31.8570   37.4810   25.4470 H   0  0  0  0  0  0  0  0  0  0  0  0
   30.4860   38.7780   27.9210 H   0  0  0  0  0  0  0  0  0  0  0  0
   30.3380   37.0430   27.3250 H   0  0  0  0  0  0  0  0  0  0  0  0
   33.1470   34.9790   23.5760 C   0  0  0  0  0  0  0  0  0  0  0  0
   32.3920   35.6450   24.0760 H   0  0  0  0  0  0  0  0  0  0  0  0
   32.5970   34.1330   23.0770 H   0  0  0  0  0  0  0  0  0  0  0  0
   34.0960   34.3660   24.6620 C   0  0  0  0  0  0  0  0  0  0  0  0
   33.3760   33.1660   25.0650 O   0  0  0  0  0  0  0  0  0  0  0  0
   33.8980   32.3470   24.8150 H   0  0  0  0  0  0  0  0  0  0  0  0
   34.1900   35.2450   25.9050 C   0  0  0  0  0  0  0  0  0  0  0  0
   33.1800   35.5050   26.2960 H   0  0  0  0  0  0  0  0  0  0  0  0
   34.7500   34.7250   26.7150 H   0  0  0  0  0  0  0  0  0  0  0  0
   34.7190   36.1920   25.6610 H   0  0  0  0  0  0  0  0  0  0  0  0
   35.4780   33.9820   24.1350 C   0  0  0  0  0  0  0  0  0  0  0  0
   36.0550   33.4560   24.9310 H   0  0  0  0  0  0  0  0  0  0  0  0
   35.3860   33.2960   23.2680 H   0  0  0  0  0  0  0  0  0  0  0  0
   36.0470   34.8870   23.8470 H   0  0  0  0  0  0  0  0  0  0  0  0
  1  3  2  0  0  0  0
  1  7  1  0  0  0  0
  1 21  1  0  0  0  0
  2 12  1  0  0  0  0
  2 17  2  0  0  0  0
  2 18  1  0  0  0  0
  3 13  1  0  0  0  0
  3 14  1  0  0  0  0
  4 16  2  0  0  0  0
  4 19  1  0  0  0  0
  4 20  1  0  0  0  0
  5  6  1  0  0  0  0
  5 10  1  0  0  0  0
  5 11  2  0  0  0  0
  6 12  2  0  0  0  0
  6 22  1  0  0  0  0
  7  8  2  0  0  0  0
  7 27  1  0  0  0  0
  8  9  1  0  0  0  0
  8 23  1  0  0  0  0
  9 13  2  0  0  0  0
  9 24  1  0  0  0  0
 10 18  1  0  0  0  0
 10 19  2  0  0  0  0
 11 16  1  0  0  0  0
 11 25  1  0  0  0  0
 12 15  1  0  0  0  0
 13 15  1  0  0  0  0
 18 43  1  0  0  0  0
 20 26  1  0  0  0  0
 20 30  1  0  0  0  0
 28 29  1  0  0  0  0
 28 33  1  0  0  0  0
 28 34  1  0  0  0  0
 28 35  1  0  0  0  0
 29 30  1  0  0  0  0
 29 36  1  0  0  0  0
 29 37  1  0  0  0  0
 30 31  1  0  0  0  0
 30 38  1  0  0  0  0
 31 32  1  0  0  0  0
 31 39  1  0  0  0  0
 31 40  1  0  0  0  0
 32 33  1  0  0  0  0
 32 41  1  0  0  0  0
 32 42  1  0  0  0  0
 43 44  1  0  0  0  0
 43 45  1  0  0  0  0
 43 46  1  0  0  0  0
 46 47  1  0  0  0  0
 46 49  1  0  0  0  0
 46 53  1  0  0  0  0
 47 48  1  0  0  0  0
 49 50  1  0  0  0  0
 49 51  1  0  0  0  0
 49 52  1  0  0  0  0
 53 54  1  0  0  0  0
 53 55  1  0  0  0  0
 53 56  1  0  0  0  0
M  END
$$$$
