27
 OpenBabel02232411163D
Structure written by MMmdl.
 38 40  0  0  0  0  0  0  0  0999 V2000
    3.2650  -47.8980    7.1770 O   0  0  0  0  0  0  0  0  0  0  0  0
    2.9440  -49.0590    6.8860 C   0  0  0  0  0  0  0  0  0  0  0  0
    3.7150  -50.0360    6.7930 O   0  5  0  0  0  0  0  0  0  0  0  0
    1.4660  -49.3700    6.6020 C   0  0  0  0  0  0  0  0  0  0  0  0
   -0.3760  -50.7190    6.5020 C   0  0  0  0  0  0  0  0  0  0  0  0
   -1.3020  -51.7730    6.6120 C   0  0  0  0  0  0  0  0  0  0  0  0
   -2.5980  -51.5300    6.1880 C   0  0  0  0  0  0  0  0  0  0  0  0
   -2.9650  -50.2780    5.6380 C   0  0  0  0  0  0  0  0  0  0  0  0
   -2.0520  -49.2390    5.5180 C   0  0  0  0  0  0  0  0  0  0  0  0
   -0.7380  -49.4220    5.9820 C   0  0  0  0  0  0  0  0  0  0  0  0
    0.4360  -48.5840    6.0880 C   0  0  0  0  0  0  0  0  0  0  0  0
    0.5400  -47.1490    5.7100 C   0  0  0  0  0  0  0  0  0  0  0  0
   -0.5920  -46.2480    6.2440 C   0  0  0  0  0  0  0  0  0  0  0  0
   -0.7870  -46.3030    7.7540 C   0  0  0  0  0  0  0  0  0  0  0  0
   -1.8740  -47.2120    8.1250 O   0  0  0  0  0  0  0  0  0  0  0  0
   -3.1270  -46.7030    8.3240 C   0  0  0  0  0  0  0  0  0  0  0  0
   -3.6380  -45.5450    7.7170 C   0  0  0  0  0  0  0  0  0  0  0  0
   -4.9410  -45.1420    8.0290 C   0  0  0  0  0  0  0  0  0  0  0  0
   -5.7190  -45.8660    8.9330 C   0  0  0  0  0  0  0  0  0  0  0  0
   -5.2070  -47.0400    9.5060 C   0  0  0  0  0  0  0  0  0  0  0  0
   -3.9190  -47.4710    9.2110 C   0  0  0  0  0  0  0  0  0  0  0  0
   -1.0180  -52.7440    7.0180 H   0  0  0  0  0  0  0  0  0  0  0  0
   -3.3570  -52.3090    6.2710 H   0  0  0  0  0  0  0  0  0  0  0  0
   -3.9930  -50.1380    5.3010 H   0  0  0  0  0  0  0  0  0  0  0  0
   -2.3660  -48.3020    5.0600 H   0  0  0  0  0  0  0  0  0  0  0  0
    0.5260  -47.0690    4.5970 H   0  0  0  0  0  0  0  0  0  0  0  0
    1.5190  -46.7400    6.0810 H   0  0  0  0  0  0  0  0  0  0  0  0
   -0.3480  -45.1940    5.9790 H   0  0  0  0  0  0  0  0  0  0  0  0
   -1.5550  -46.5190    5.7480 H   0  0  0  0  0  0  0  0  0  0  0  0
   -0.9840  -45.3050    8.2000 H   0  0  0  0  0  0  0  0  0  0  0  0
    0.0650  -46.8190    8.2530 H   0  0  0  0  0  0  0  0  0  0  0  0
   -3.0610  -44.9710    6.9980 H   0  0  0  0  0  0  0  0  0  0  0  0
   -3.5290  -48.3840    9.6530 H   0  0  0  0  0  0  0  0  0  0  0  0
    0.9780  -50.6660    6.8580 N   0  0  0  0  0  0  0  0  0  0  0  0
    1.4950  -51.4580    7.2240 H   0  0  0  0  0  0  0  0  0  0  0  0
   -5.8310  -47.6170   10.1920 H   0  0  0  0  0  0  0  0  0  0  0  0
   -6.7250  -45.5330    9.1810 H   0  0  0  0  0  0  0  0  0  0  0  0
   -5.3600  -44.2530    7.5550 H   0  0  0  0  0  0  0  0  0  0  0  0
  1  2  2  0  0  0  0
  2  3  1  0  0  0  0
  2  4  1  0  0  0  0
  4 11  2  0  0  0  0
  4 34  1  0  0  0  0
  5  6  2  0  0  0  0
  5 10  1  0  0  0  0
  5 34  1  0  0  0  0
  6  7  1  0  0  0  0
  6 22  1  0  0  0  0
  7  8  2  0  0  0  0
  7 23  1  0  0  0  0
  8  9  1  0  0  0  0
  8 24  1  0  0  0  0
  9 10  2  0  0  0  0
  9 25  1  0  0  0  0
 10 11  1  0  0  0  0
 11 12  1  0  0  0  0
 12 26  1  0  0  0  0
 12 27  1  0  0  0  0
 12 13  1  0  0  0  0
 13 14  1  0  0  0  0
 13 28  1  0  0  0  0
 13 29  1  0  0  0  0
 14 15  1  0  0  0  0
 14 30  1  0  0  0  0
 14 31  1  0  0  0  0
 15 16  1  0  0  0  0
 16 17  2  0  0  0  0
 16 21  1  0  0  0  0
 17 18  1  0  0  0  0
 17 32  1  0  0  0  0
 18 19  2  0  0  0  0
 18 38  1  0  0  0  0
 19 20  1  0  0  0  0
 19 37  1  0  0  0  0
 20 21  2  0  0  0  0
 20 36  1  0  0  0  0
 21 33  1  0  0  0  0
 34 35  1  0  0  0  0
M  CHG  1   3  -1
M  END
$$$$
