CAT-17c
 OpenBabel02232411143D
Structure written by MMmdl.
 44 47  0  0  1  0  0  0  0  0999 V2000
   11.6350   -2.3120    1.2270 C   0  0  0  0  0  0  0  0  0  0  0  0
   12.9870   -2.3360    0.6320 N   0  0  0  0  0  0  0  0  0  0  0  0
   14.1690   -2.3290    1.3650 C   0  0  0  0  0  0  0  0  0  0  0  0
   14.3040   -2.4250    2.7180 N   0  0  0  0  0  0  0  0  0  0  0  0
   15.2690   -2.2720    0.4970 N   0  3  0  0  0  0  0  0  0  0  0  0
   14.8310   -2.6030   -0.9110 C   0  0  1  0  0  0  0  0  0  0  0  0
   15.4310   -1.5890   -1.8600 C   0  0  0  0  0  0  0  0  0  0  0  0
   16.3170   -1.9730   -2.8740 C   0  0  0  0  0  0  0  0  0  0  0  0
   16.7990   -1.0110   -3.7680 C   0  0  0  0  0  0  0  0  0  0  0  0
   16.4280    0.3290   -3.6410 C   0  0  0  0  0  0  0  0  0  0  0  0
   15.5890    0.7310   -2.5890 C   0  0  0  0  0  0  0  0  0  0  0  0
   15.2340    2.1510   -2.3750 C   0  0  0  0  0  0  0  0  0  0  0  0
   14.7830    2.9600   -3.4310 C   0  0  0  0  0  0  0  0  0  0  0  0
   14.3720    4.2720   -3.1790 C   0  0  0  0  0  0  0  0  0  0  0  0
   14.3910    4.7880   -1.8810 C   0  0  0  0  0  0  0  0  0  0  0  0
   14.8720    3.9910   -0.8300 C   0  0  0  0  0  0  0  0  0  0  0  0
   14.8910    4.4840    0.5170 C   0  0  0  0  0  0  0  0  0  0  0  0
   14.9000    4.8740    1.6060 N   0  0  0  0  0  0  0  0  0  0  0  0
   15.3140    2.6830   -1.0790 C   0  0  0  0  0  0  0  0  0  0  0  0
   15.0770   -0.2390   -1.7140 C   0  0  0  0  0  0  0  0  0  0  0  0
   15.0550   -4.0620   -1.2750 C   0  0  0  0  0  0  0  0  0  0  0  0
   16.2730   -4.8150   -0.7670 C   0  0  0  0  0  0  0  0  0  0  0  0
   14.9030   -5.1620   -0.2290 C   0  0  0  0  0  0  0  0  0  0  0  0
   13.2780   -2.4280   -0.8150 C   0  0  0  0  0  0  0  0  0  0  0  0
   12.4210   -2.3790   -1.6360 O   0  0  0  0  0  0  0  0  0  0  0  0
   11.6700   -2.6040    2.3100 H   0  0  0  0  0  0  0  0  0  0  0  0
   11.2070   -1.2790    1.1310 H   0  0  0  0  0  0  0  0  0  0  0  0
   10.9820   -3.0480    0.6840 H   0  0  0  0  0  0  0  0  0  0  0  0
   13.5800   -2.0430    3.3750 H   0  0  0  0  0  0  0  0  0  0  0  0
   16.1960   -2.6230    0.8650 H   0  0  0  0  0  0  0  0  0  0  0  0
   16.6340   -3.0140   -2.9660 H   0  0  0  0  0  0  0  0  0  0  0  0
   17.4780   -1.3130   -4.5730 H   0  0  0  0  0  0  0  0  0  0  0  0
   16.7950    1.0630   -4.3630 H   0  0  0  0  0  0  0  0  0  0  0  0
   14.7370    2.5610   -4.4480 H   0  0  0  0  0  0  0  0  0  0  0  0
   14.0140    4.8940   -4.0090 H   0  0  0  0  0  0  0  0  0  0  0  0
   14.0140    5.7960   -1.6900 H   0  0  0  0  0  0  0  0  0  0  0  0
   15.7120    2.0710   -0.2680 H   0  0  0  0  0  0  0  0  0  0  0  0
   14.4030    0.0550   -0.9100 H   0  0  0  0  0  0  0  0  0  0  0  0
   14.7060   -4.2870   -2.3000 H   0  0  0  0  0  0  0  0  0  0  0  0
   16.7930   -5.4880   -1.4470 H   0  0  0  0  0  0  0  0  0  0  0  0
   16.9880   -4.3000   -0.1230 H   0  0  0  0  0  0  0  0  0  0  0  0
   14.6620   -4.8950    0.8070 H   0  0  0  0  0  0  0  0  0  0  0  0
   14.4190   -6.1000   -0.5330 H   0  0  0  0  0  0  0  0  0  0  0  0
   15.2800   -2.3650    3.1270 H   0  0  0  0  0  0  0  0  0  0  0  0
  1  2  1  0  0  0  0
  1 26  1  0  0  0  0
  1 27  1  0  0  0  0
  1 28  1  0  0  0  0
  2  3  1  0  0  0  0
  2 24  1  0  0  0  0
  3  4  1  0  0  0  0
  3  5  2  0  0  0  0
  4 29  1  0  0  0  0
  4 44  1  0  0  0  0
  5  6  1  0  0  0  0
  5 30  1  0  0  0  0
  6  7  1  6  0  0  0
  6 21  1  0  0  0  0
  6 24  1  0  0  0  0
  7  8  2  0  0  0  0
  7 20  1  0  0  0  0
  8  9  1  0  0  0  0
  8 31  1  0  0  0  0
  9 10  2  0  0  0  0
  9 32  1  0  0  0  0
 10 11  1  0  0  0  0
 10 33  1  0  0  0  0
 11 12  1  0  0  0  0
 11 20  2  0  0  0  0
 12 13  2  0  0  0  0
 12 19  1  0  0  0  0
 13 14  1  0  0  0  0
 13 34  1  0  0  0  0
 14 15  2  0  0  0  0
 14 35  1  0  0  0  0
 15 16  1  0  0  0  0
 15 36  1  0  0  0  0
 16 17  1  0  0  0  0
 16 19  2  0  0  0  0
 17 18  3  0  0  0  0
 19 37  1  0  0  0  0
 20 38  1  0  0  0  0
 21 22  1  0  0  0  0
 21 23  1  0  0  0  0
 21 39  1  0  0  0  0
 22 23  1  0  0  0  0
 22 40  1  0  0  0  0
 22 41  1  0  0  0  0
 23 42  1  0  0  0  0
 23 43  1  0  0  0  0
 24 25  2  0  0  0  0
M  CHG  1   5   1
M  END
$$$$
