1oi9
                    3D
 Schrodinger Suite 2022-3.
 46 49  0  0  1  0  0  0  0  0999 V2000
    1.8490   28.9300    6.8430 C   0  0  0  0  0  0  0  0  0  0  0  0
   -1.6840   31.5020    7.9110 C   0  0  0  0  0  0  0  0  0  0  0  0
   -0.2880   26.0020    8.7870 C   0  0  0  0  0  0  0  0  0  0  0  0
   -1.0530   25.3560    9.9510 C   0  0  0  0  0  0  0  0  0  0  0  0
   -0.8950   23.8240    9.8150 C   0  0  0  0  0  0  0  0  0  0  0  0
   -1.5390   23.0920   11.0000 C   0  0  0  0  0  0  0  0  0  0  0  0
   -0.9930   23.5920   12.3460 C   0  0  0  0  0  0  0  0  0  0  0  0
   -1.1690   25.1130   12.4860 C   0  0  0  0  0  0  0  0  0  0  0  0
   -0.5260   25.8620   11.3090 C   0  0  0  0  0  0  0  0  0  0  0  0
    5.2230   25.7110    5.4150 C   0  0  0  0  0  0  0  0  0  0  0  0
    5.1420   24.9060    6.5580 C   0  0  0  0  0  0  0  0  0  0  0  0
    4.3900   25.2890    7.6830 C   0  0  0  0  0  0  0  0  0  0  0  0
    3.6950   26.4950    7.6520 C   0  0  0  0  0  0  0  0  0  0  0  0
    1.1080   27.9570    7.5130 N   0  0  0  0  0  0  0  0  0  0  0  0
   -0.1020   28.2840    8.0320 C   0  0  0  0  0  0  0  0  0  0  0  0
   -0.8340   27.3780    8.6970 O   0  0  0  0  0  0  0  0  0  0  0  0
   -0.6140   29.6010    7.8860 C   0  0  0  0  0  0  0  0  0  0  0  0
   -1.7810   30.2370    8.3260 N   0  0  0  0  0  0  0  0  0  0  0  0
   -0.4480   31.7530    7.2140 N   0  0  0  0  0  0  0  0  0  0  0  0
    0.2280   30.5370    7.1620 C   0  0  0  0  0  0  0  0  0  0  0  0
    1.4370   30.2320    6.5920 N   0  0  0  0  0  0  0  0  0  0  0  0
    3.1390   28.6080    6.4380 N   0  0  0  0  0  0  0  0  0  0  0  0
    3.7490   27.3070    6.5010 C   0  0  0  0  0  0  0  0  0  0  0  0
    4.5190   26.9130    5.3900 C   0  0  0  0  0  0  0  0  0  0  0  0
   -2.4060   32.2980    8.0680 H   0  0  0  0  0  0  0  0  0  0  0  0
   -0.5260   25.5330    7.8110 H   0  0  0  0  0  0  0  0  0  0  0  0
    0.8060   26.0410    8.9830 H   0  0  0  0  0  0  0  0  0  0  0  0
   -2.1380   25.6160    9.8710 H   0  0  0  0  0  0  0  0  0  0  0  0
    0.1910   23.5630    9.7750 H   0  0  0  0  0  0  0  0  0  0  0  0
   -1.3800   23.4860    8.8730 H   0  0  0  0  0  0  0  0  0  0  0  0
   -1.3460   21.9980   10.9100 H   0  0  0  0  0  0  0  0  0  0  0  0
   -2.6380   23.2630   10.9760 H   0  0  0  0  0  0  0  0  0  0  0  0
    0.0910   23.3410   12.4240 H   0  0  0  0  0  0  0  0  0  0  0  0
   -1.5340   23.0810   13.1750 H   0  0  0  0  0  0  0  0  0  0  0  0
   -0.6850   25.4470   13.4340 H   0  0  0  0  0  0  0  0  0  0  0  0
   -2.2550   25.3550   12.5450 H   0  0  0  0  0  0  0  0  0  0  0  0
   -0.7430   26.9500   11.4060 H   0  0  0  0  0  0  0  0  0  0  0  0
    0.5800   25.7150   11.3620 H   0  0  0  0  0  0  0  0  0  0  0  0
    5.8240   25.4170    4.5530 H   0  0  0  0  0  0  0  0  0  0  0  0
    5.7980   23.6970    6.6470 O   0  0  0  0  0  0  0  0  0  0  0  0
    4.3500   24.6490    8.5670 H   0  0  0  0  0  0  0  0  0  0  0  0
    3.1120   26.8000    8.5260 H   0  0  0  0  0  0  0  0  0  0  0  0
   -0.2110   32.6200    6.7110 H   0  0  0  0  0  0  0  0  0  0  0  0
    3.5950   29.2420    5.7390 H   0  0  0  0  0  0  0  0  0  0  0  0
    4.5860   27.5460    4.5020 H   0  0  0  0  0  0  0  0  0  0  0  0
    6.3330   23.5240    5.8100 H   0  0  0  0  0  0  0  0  0  0  0  0
  1 14  1  0  0  0  0
  1 21  2  0  0  0  0
  1 22  1  0  0  0  0
  2 18  2  0  0  0  0
  2 19  1  0  0  0  0
  2 25  1  0  0  0  0
  3  4  1  0  0  0  0
  3 16  1  0  0  0  0
  3 26  1  0  0  0  0
  3 27  1  0  0  0  0
  4  5  1  0  0  0  0
  4  9  1  0  0  0  0
  4 28  1  0  0  0  0
  5  6  1  0  0  0  0
  5 29  1  0  0  0  0
  5 30  1  0  0  0  0
  6  7  1  0  0  0  0
  6 31  1  0  0  0  0
  6 32  1  0  0  0  0
  7  8  1  0  0  0  0
  7 33  1  0  0  0  0
  7 34  1  0  0  0  0
  8  9  1  0  0  0  0
  8 35  1  0  0  0  0
  8 36  1  0  0  0  0
  9 37  1  0  0  0  0
  9 38  1  0  0  0  0
 10 11  1  0  0  0  0
 10 24  2  0  0  0  0
 10 39  1  0  0  0  0
 11 12  2  0  0  0  0
 11 40  1  0  0  0  0
 12 13  1  0  0  0  0
 12 41  1  0  0  0  0
 13 23  2  0  0  0  0
 13 42  1  0  0  0  0
 14 15  2  0  0  0  0
 15 16  1  0  0  0  0
 15 17  1  0  0  0  0
 17 18  1  0  0  0  0
 17 20  2  0  0  0  0
 19 20  1  0  0  0  0
 19 43  1  0  0  0  0
 20 21  1  0  0  0  0
 22 23  1  0  0  0  0
 22 44  1  0  0  0  0
 23 24  1  0  0  0  0
 24 45  1  0  0  0  0
 40 46  1  0  0  0  0
M  END
$$$$
