p38a_2x
 OpenBabel02232411163D
Structure written by MMmdl.
 43 46  0  0  1  0  0  0  0  0999 V2000
   36.3220   35.9290   15.9630 C   0  0  0  0  0  0  0  0  0  0  0  0
   34.5170   35.0560   21.5600 C   0  0  0  0  0  0  0  0  0  0  0  0
   35.6220   35.5000   17.0860 C   0  0  0  0  0  0  0  0  0  0  0  0
   34.2060   39.1940   24.0430 C   0  0  0  0  0  0  0  0  0  0  0  0
   34.7750   37.9140   21.6700 C   0  0  0  0  0  0  0  0  0  0  0  0
   35.1580   37.2200   20.4700 C   0  0  0  0  0  0  0  0  0  0  0  0
   37.6160   36.4180   16.1820 C   0  0  0  0  0  0  0  0  0  0  0  0
   38.2240   36.4510   17.4410 C   0  0  0  0  0  0  0  0  0  0  0  0
   37.4880   36.0430   18.5590 C   0  0  0  0  0  0  0  0  0  0  0  0
   34.3810   37.1870   22.8330 C   0  0  0  0  0  0  0  0  0  0  0  0
   34.7770   39.3310   21.7680 C   0  0  0  0  0  0  0  0  0  0  0  0
   35.0700   35.8710   20.4450 C   0  0  0  0  0  0  0  0  0  0  0  0
   36.1850   35.5700   18.3770 C   0  0  0  0  0  0  0  0  0  0  0  0
   33.8280   35.0410   23.9860 C   0  0  0  0  0  0  0  0  0  0  0  0
   34.4010   34.9950   16.9670 F   0  0  0  0  0  0  0  0  0  0  0  0
   35.4070   35.0130   19.4000 O   0  0  0  0  0  0  0  0  0  0  0  0
   34.4970   39.9780   22.9070 N   0  0  0  0  0  0  0  0  0  0  0  0
   34.2770   33.8700   21.5090 O   0  0  0  0  0  0  0  0  0  0  0  0
   34.2590   35.7900   22.7720 N   0  0  0  0  0  0  0  0  0  0  0  0
   34.1020   37.8210   24.0230 N   0  0  0  0  0  0  0  0  0  0  0  0
   34.0930   39.9030   25.2270 N   0  0  0  0  0  0  0  0  0  0  0  0
   35.8790   35.9120   14.9630 H   0  0  0  0  0  0  0  0  0  0  0  0
   35.5210   37.8140   19.6260 H   0  0  0  0  0  0  0  0  0  0  0  0
   39.2470   36.8190   17.5550 H   0  0  0  0  0  0  0  0  0  0  0  0
   37.9280   36.1180   19.5550 H   0  0  0  0  0  0  0  0  0  0  0  0
   35.0040   39.9420   20.8790 H   0  0  0  0  0  0  0  0  0  0  0  0
   34.5170   35.2740   24.8420 H   0  0  0  0  0  0  0  0  0  0  0  0
   32.7840   35.3410   24.2700 H   0  0  0  0  0  0  0  0  0  0  0  0
   33.8520   33.9370   23.7880 H   0  0  0  0  0  0  0  0  0  0  0  0
   34.0320   40.9430   25.1470 H   0  0  0  0  0  0  0  0  0  0  0  0
   38.2850   36.9060   15.1400 F   0  0  0  0  0  0  0  0  0  0  0  0
   33.3830   37.4240   27.8340 O   0  0  0  0  0  0  0  0  0  0  0  0
   32.1140   37.4900   27.1220 C   0  0  0  0  0  0  0  0  0  0  0  0
   32.0700   38.8380   26.3870 C   0  0  0  0  0  0  0  0  0  0  0  0
   33.5040   39.4120   26.4980 C   0  0  1  0  0  0  0  0  0  0  0  0
   34.3370   38.2890   27.1710 C   0  0  0  0  0  0  0  0  0  0  0  0
   31.3450   37.4060   27.9210 H   0  0  0  0  0  0  0  0  0  0  0  0
   32.0810   36.6300   26.4180 H   0  0  0  0  0  0  0  0  0  0  0  0
   31.7550   38.7040   25.3280 H   0  0  0  0  0  0  0  0  0  0  0  0
   31.3460   39.5340   26.8680 H   0  0  0  0  0  0  0  0  0  0  0  0
   33.4910   40.3230   27.1670 H   0  0  0  0  0  0  0  0  0  0  0  0
   34.9830   38.6770   27.9890 H   0  0  0  0  0  0  0  0  0  0  0  0
   34.9080   37.6770   26.4400 H   0  0  0  0  0  0  0  0  0  0  0  0
  1  3  2  0  0  0  0
  1  7  1  0  0  0  0
  1 22  1  0  0  0  0
  2 12  1  0  0  0  0
  2 18  2  0  0  0  0
  2 19  1  0  0  0  0
  3 13  1  0  0  0  0
  3 15  1  0  0  0  0
  4 17  2  0  0  0  0
  4 20  1  0  0  0  0
  4 21  1  0  0  0  0
  5  6  1  0  0  0  0
  5 10  1  0  0  0  0
  5 11  2  0  0  0  0
  6 12  2  0  0  0  0
  6 23  1  0  0  0  0
  7  8  2  0  0  0  0
  7 31  1  0  0  0  0
  8  9  1  0  0  0  0
  8 24  1  0  0  0  0
  9 13  2  0  0  0  0
  9 25  1  0  0  0  0
 10 19  1  0  0  0  0
 10 20  2  0  0  0  0
 11 17  1  0  0  0  0
 11 26  1  0  0  0  0
 12 16  1  0  0  0  0
 13 16  1  0  0  0  0
 14 19  1  0  0  0  0
 14 27  1  0  0  0  0
 14 28  1  0  0  0  0
 14 29  1  0  0  0  0
 21 30  1  0  0  0  0
 21 35  1  0  0  0  0
 32 33  1  0  0  0  0
 32 36  1  0  0  0  0
 33 34  1  0  0  0  0
 33 37  1  0  0  0  0
 33 38  1  0  0  0  0
 34 35  1  0  0  0  0
 34 39  1  0  0  0  0
 34 40  1  0  0  0  0
 35 36  1  0  0  0  0
 35 41  1  1  0  0  0
 36 42  1  0  0  0  0
 36 43  1  0  0  0  0
M  END
$$$$
