p38a_3fmh
 OpenBabel02232411163D
Structure written by MMmdl.
 46 49  0  0  1  0  0  0  0  0999 V2000
   38.3620   37.2400   14.8780 F   0  0  0  0  0  0  0  0  0  0  0  0
   37.6720   36.7130   15.8860 C   0  0  0  0  0  0  0  0  0  0  0  0
   36.3320   36.3840   15.6680 C   0  0  0  0  0  0  0  0  0  0  0  0
   35.5730   35.8860   16.7330 C   0  0  0  0  0  0  0  0  0  0  0  0
   38.3150   36.5600   17.1210 C   0  0  0  0  0  0  0  0  0  0  0  0
   37.5350   36.0780   18.1690 C   0  0  0  0  0  0  0  0  0  0  0  0
   38.0600   35.9530   19.3810 F   0  0  0  0  0  0  0  0  0  0  0  0
   36.1830   35.7240   17.9800 C   0  0  0  0  0  0  0  0  0  0  0  0
   35.4670   35.0850   19.0030 O   0  0  0  0  0  0  0  0  0  0  0  0
   35.0520   35.9110   20.0450 C   0  0  0  0  0  0  0  0  0  0  0  0
   34.5150   35.0560   21.1370 C   0  0  0  0  0  0  0  0  0  0  0  0
   34.3820   33.8530   21.0890 O   0  0  0  0  0  0  0  0  0  0  0  0
   34.1410   35.7740   22.3260 N   0  0  0  0  0  0  0  0  0  0  0  0
   33.6330   35.0140   23.5040 C   0  0  0  0  0  0  0  0  0  0  0  0
   34.2320   37.1720   22.4080 C   0  0  0  0  0  0  0  0  0  0  0  0
   33.8800   37.7770   23.5910 N   0  0  0  0  0  0  0  0  0  0  0  0
   35.0980   37.2620   20.0860 C   0  0  0  0  0  0  0  0  0  0  0  0
   34.6780   37.9320   21.2870 C   0  0  0  0  0  0  0  0  0  0  0  0
   34.6980   39.3440   21.4320 C   0  0  0  0  0  0  0  0  0  0  0  0
   34.3760   39.9620   22.5810 N   0  0  0  0  0  0  0  0  0  0  0  0
   33.9980   39.1470   23.6590 C   0  0  0  0  0  0  0  0  0  0  0  0
   33.8050   39.7700   24.8880 N   0  0  0  0  0  0  0  0  0  0  0  0
   32.9520   39.1170   25.9300 C   0  0  2  0  0  0  0  0  0  0  0  0
   31.4700   39.3850   25.6580 C   0  0  0  0  0  0  0  0  0  0  0  0
   33.4250   39.7200   27.2900 C   0  0  0  0  0  0  0  0  0  0  0  0
   32.8310   38.9870   28.4280 N   0  0  0  0  0  0  0  0  0  0  0  0
   31.7870   39.4680   29.1570 N   0  0  0  0  0  0  0  0  0  0  0  0
   31.5210   38.4830   30.0600 C   0  0  0  0  0  0  0  0  0  0  0  0
   32.4310   37.4100   29.8500 N   0  0  0  0  0  0  0  0  0  0  0  0
   33.2020   37.7380   28.8630 N   0  0  0  0  0  0  0  0  0  0  0  0
   35.8640   36.5270   14.6920 H   0  0  0  0  0  0  0  0  0  0  0  0
   34.5150   35.6460   16.5840 H   0  0  0  0  0  0  0  0  0  0  0  0
   39.3610   36.8440   17.2660 H   0  0  0  0  0  0  0  0  0  0  0  0
   34.2420   35.2660   24.4160 H   0  0  0  0  0  0  0  0  0  0  0  0
   32.5630   35.2940   23.7030 H   0  0  0  0  0  0  0  0  0  0  0  0
   33.6970   33.9120   23.3120 H   0  0  0  0  0  0  0  0  0  0  0  0
   35.4530   37.8730   19.2540 H   0  0  0  0  0  0  0  0  0  0  0  0
   34.9740   39.9810   20.5770 H   0  0  0  0  0  0  0  0  0  0  0  0
   33.7360   40.8110   24.8950 H   0  0  0  0  0  0  0  0  0  0  0  0
   33.1550   38.0080   25.9310 H   0  0  0  0  0  0  0  0  0  0  0  0
   30.8380   38.9760   26.4760 H   0  0  0  0  0  0  0  0  0  0  0  0
   31.2800   40.4800   25.5760 H   0  0  0  0  0  0  0  0  0  0  0  0
   31.1590   38.8960   24.7060 H   0  0  0  0  0  0  0  0  0  0  0  0
   34.5500   39.6480   27.3580 H   0  0  0  0  0  0  0  0  0  0  0  0
   33.1330   40.8080   27.3550 H   0  0  0  0  0  0  0  0  0  0  0  0
   30.7430   38.5040   30.8210 H   0  0  0  0  0  0  0  0  0  0  0  0
  1  2  1  0  0  0  0
  2  3  2  0  0  0  0
  2  5  1  0  0  0  0
  3  4  1  0  0  0  0
  3 31  1  0  0  0  0
  4  8  2  0  0  0  0
  4 32  1  0  0  0  0
  5  6  2  0  0  0  0
  5 33  1  0  0  0  0
  6  7  1  0  0  0  0
  6  8  1  0  0  0  0
  8  9  1  0  0  0  0
  9 10  1  0  0  0  0
 10 11  1  0  0  0  0
 10 17  2  0  0  0  0
 11 12  2  0  0  0  0
 11 13  1  0  0  0  0
 13 14  1  0  0  0  0
 13 15  1  0  0  0  0
 14 34  1  0  0  0  0
 14 35  1  0  0  0  0
 14 36  1  0  0  0  0
 15 16  2  0  0  0  0
 15 18  1  0  0  0  0
 16 21  1  0  0  0  0
 17 18  1  0  0  0  0
 17 37  1  0  0  0  0
 18 19  2  0  0  0  0
 19 20  1  0  0  0  0
 19 38  1  0  0  0  0
 20 21  2  0  0  0  0
 21 22  1  0  0  0  0
 22 23  1  0  0  0  0
 22 39  1  0  0  0  0
 23 24  1  0  0  0  0
 23 25  1  0  0  0  0
 23 40  1  6  0  0  0
 24 41  1  0  0  0  0
 24 42  1  0  0  0  0
 24 43  1  0  0  0  0
 25 26  1  0  0  0  0
 25 44  1  0  0  0  0
 25 45  1  0  0  0  0
 26 27  1  0  0  0  0
 26 30  1  0  0  0  0
 27 28  2  0  0  0  0
 28 29  1  0  0  0  0
 28 46  1  0  0  0  0
 29 30  2  0  0  0  0
M  END
$$$$
