p38a_2x
 OpenBabel02232411163D
Structure written by MMmdl.
 43 46  0  0  1  0  0  0  0  0999 V2000
   38.2870   36.5420   17.1570 C   0  0  0  0  0  0  0  0  0  0  0  0
   34.4830   35.1000   21.1930 C   0  0  0  0  0  0  0  0  0  0  0  0
   37.5010   36.0800   18.2090 C   0  0  0  0  0  0  0  0  0  0  0  0
   33.8700   39.1970   23.6920 C   0  0  0  0  0  0  0  0  0  0  0  0
   34.6160   37.9750   21.3360 C   0  0  0  0  0  0  0  0  0  0  0  0
   35.0470   37.3080   20.1380 C   0  0  0  0  0  0  0  0  0  0  0  0
   37.6420   36.7060   15.9230 C   0  0  0  0  0  0  0  0  0  0  0  0
   36.2940   36.4080   15.7120 C   0  0  0  0  0  0  0  0  0  0  0  0
   35.5280   35.9320   16.7820 C   0  0  0  0  0  0  0  0  0  0  0  0
   34.1630   37.2180   22.4570 C   0  0  0  0  0  0  0  0  0  0  0  0
   34.6300   39.3880   21.4780 C   0  0  0  0  0  0  0  0  0  0  0  0
   35.0100   35.9560   20.0970 C   0  0  0  0  0  0  0  0  0  0  0  0
   36.1390   35.7580   18.0270 C   0  0  0  0  0  0  0  0  0  0  0  0
   33.5780   35.0520   23.5480 C   0  0  0  0  0  0  0  0  0  0  0  0
   38.0280   35.9410   19.4180 F   0  0  0  0  0  0  0  0  0  0  0  0
   35.4190   35.1290   19.0530 O   0  0  0  0  0  0  0  0  0  0  0  0
   34.2790   40.0080   22.6130 N   0  0  0  0  0  0  0  0  0  0  0  0
   34.3720   33.8940   21.1520 O   0  0  0  0  0  0  0  0  0  0  0  0
   34.0880   35.8180   22.3760 N   0  0  0  0  0  0  0  0  0  0  0  0
   33.7900   37.8230   23.6350 N   0  0  0  0  0  0  0  0  0  0  0  0
   33.5950   39.8660   24.8690 N   0  0  0  0  0  0  0  0  0  0  0  0
   39.3410   36.8000   17.2940 H   0  0  0  0  0  0  0  0  0  0  0  0
   35.3990   37.9200   19.3060 H   0  0  0  0  0  0  0  0  0  0  0  0
   35.8260   36.5580   14.7370 H   0  0  0  0  0  0  0  0  0  0  0  0
   34.4650   35.7170   16.6380 H   0  0  0  0  0  0  0  0  0  0  0  0
   34.9250   40.0220   20.6260 H   0  0  0  0  0  0  0  0  0  0  0  0
   34.2380   35.2330   24.4390 H   0  0  0  0  0  0  0  0  0  0  0  0
   32.5370   35.3920   23.7980 H   0  0  0  0  0  0  0  0  0  0  0  0
   33.5610   33.9550   23.3180 H   0  0  0  0  0  0  0  0  0  0  0  0
   33.6500   40.9070   24.8580 H   0  0  0  0  0  0  0  0  0  0  0  0
   38.3430   37.2090   14.9100 F   0  0  0  0  0  0  0  0  0  0  0  0
   32.5350   37.4510   27.4480 O   0  0  0  0  0  0  0  0  0  0  0  0
   31.3380   37.4840   26.6160 C   0  0  0  0  0  0  0  0  0  0  0  0
   31.4620   38.6730   25.6500 C   0  0  0  0  0  0  0  0  0  0  0  0
   32.8080   39.3440   26.0120 C   0  0  1  0  0  0  0  0  0  0  0  0
   33.5630   38.2720   26.8410 C   0  0  0  0  0  0  0  0  0  0  0  0
   30.5030   37.6020   27.3390 H   0  0  0  0  0  0  0  0  0  0  0  0
   31.2890   36.5120   26.0790 H   0  0  0  0  0  0  0  0  0  0  0  0
   31.4490   38.3160   24.5950 H   0  0  0  0  0  0  0  0  0  0  0  0
   30.6210   39.3880   25.7740 H   0  0  0  0  0  0  0  0  0  0  0  0
   32.6120   40.2490   26.6600 H   0  0  0  0  0  0  0  0  0  0  0  0
   34.1210   38.7090   27.6960 H   0  0  0  0  0  0  0  0  0  0  0  0
   34.2000   37.6150   26.2090 H   0  0  0  0  0  0  0  0  0  0  0  0
  1  3  2  0  0  0  0
  1  7  1  0  0  0  0
  1 22  1  0  0  0  0
  2 12  1  0  0  0  0
  2 18  2  0  0  0  0
  2 19  1  0  0  0  0
  3 13  1  0  0  0  0
  3 15  1  0  0  0  0
  4 17  2  0  0  0  0
  4 20  1  0  0  0  0
  4 21  1  0  0  0  0
  5  6  1  0  0  0  0
  5 10  1  0  0  0  0
  5 11  2  0  0  0  0
  6 12  2  0  0  0  0
  6 23  1  0  0  0  0
  7  8  2  0  0  0  0
  7 31  1  0  0  0  0
  8  9  1  0  0  0  0
  8 24  1  0  0  0  0
  9 13  2  0  0  0  0
  9 25  1  0  0  0  0
 10 19  1  0  0  0  0
 10 20  2  0  0  0  0
 11 17  1  0  0  0  0
 11 26  1  0  0  0  0
 12 16  1  0  0  0  0
 13 16  1  0  0  0  0
 14 19  1  0  0  0  0
 14 27  1  0  0  0  0
 14 28  1  0  0  0  0
 14 29  1  0  0  0  0
 21 30  1  0  0  0  0
 21 35  1  0  0  0  0
 32 33  1  0  0  0  0
 32 36  1  0  0  0  0
 33 34  1  0  0  0  0
 33 37  1  0  0  0  0
 33 38  1  0  0  0  0
 34 35  1  0  0  0  0
 34 39  1  0  0  0  0
 34 40  1  0  0  0  0
 35 36  1  0  0  0  0
 35 41  1  1  0  0  0
 36 42  1  0  0  0  0
 36 43  1  0  0  0  0
M  END
$$$$
