p38a_2h
 OpenBabel02232411163D
Structure written by MMmdl.
 46 49  0  0  0  0  0  0  0  0999 V2000
   32.6720   39.7670   27.4150 C   0  0  0  0  0  0  0  0  0  0  0  0
   32.6670   39.1690   28.8280 C   0  0  0  0  0  0  0  0  0  0  0  0
   35.0230   38.6490   28.7210 C   0  0  0  0  0  0  0  0  0  0  0  0
   35.1470   39.2200   27.3020 C   0  0  0  0  0  0  0  0  0  0  0  0
   37.2290   35.6940   16.0480 C   0  0  0  0  0  0  0  0  0  0  0  0
   33.9610   39.2920   29.4630 O   0  0  0  0  0  0  0  0  0  0  0  0
   34.1070   35.0700   21.4740 C   0  0  0  0  0  0  0  0  0  0  0  0
   36.0480   35.3850   16.7200 C   0  0  0  0  0  0  0  0  0  0  0  0
   34.0670   39.1660   24.0690 C   0  0  0  0  0  0  0  0  0  0  0  0
   33.7880   39.1110   26.5750 C   0  0  0  0  0  0  0  0  0  0  0  0
   34.3170   37.9360   21.6170 C   0  0  0  0  0  0  0  0  0  0  0  0
   34.4100   37.2650   20.3600 C   0  0  0  0  0  0  0  0  0  0  0  0
   38.3160   36.1360   16.8110 C   0  0  0  0  0  0  0  0  0  0  0  0
   38.2140   36.2330   18.2010 C   0  0  0  0  0  0  0  0  0  0  0  0
   37.0190   35.9150   18.8570 C   0  0  0  0  0  0  0  0  0  0  0  0
   34.1350   37.1720   22.8140 C   0  0  0  0  0  0  0  0  0  0  0  0
   34.3940   39.3540   21.7510 C   0  0  0  0  0  0  0  0  0  0  0  0
   34.3120   35.9100   20.2990 C   0  0  0  0  0  0  0  0  0  0  0  0
   35.9200   35.4880   18.1120 C   0  0  0  0  0  0  0  0  0  0  0  0
   33.9310   35.0070   24.0140 C   0  0  0  0  0  0  0  0  0  0  0  0
   34.9930   34.9450   16.0350 F   0  0  0  0  0  0  0  0  0  0  0  0
   34.3520   35.0680   18.7680 S   0  0  0  0  0  0  0  0  0  0  0  0
   34.2710   39.9780   22.9250 N   0  0  0  0  0  0  0  0  0  0  0  0
   33.9620   33.8660   21.5060 O   0  0  0  0  0  0  0  0  0  0  0  0
   34.0620   35.7830   22.7490 N   0  0  0  0  0  0  0  0  0  0  0  0
   34.0210   37.7860   24.0400 N   0  0  0  0  0  0  0  0  0  0  0  0
   33.8670   39.8140   25.2580 N   0  0  0  0  0  0  0  0  0  0  0  0
   31.6810   39.5880   26.9320 H   0  0  0  0  0  0  0  0  0  0  0  0
   32.8380   40.8690   27.4750 H   0  0  0  0  0  0  0  0  0  0  0  0
   32.0110   39.7560   29.5110 H   0  0  0  0  0  0  0  0  0  0  0  0
   32.3740   38.0930   28.8050 H   0  0  0  0  0  0  0  0  0  0  0  0
   34.8320   37.5510   28.6930 H   0  0  0  0  0  0  0  0  0  0  0  0
   35.9210   38.8920   29.3340 H   0  0  0  0  0  0  0  0  0  0  0  0
   35.4680   40.2880   27.3500 H   0  0  0  0  0  0  0  0  0  0  0  0
   35.9210   38.6450   26.7410 H   0  0  0  0  0  0  0  0  0  0  0  0
   37.3070   35.6230   14.9630 H   0  0  0  0  0  0  0  0  0  0  0  0
   33.5370   38.0260   26.4070 H   0  0  0  0  0  0  0  0  0  0  0  0
   34.5750   37.8800   19.4670 H   0  0  0  0  0  0  0  0  0  0  0  0
   39.0730   36.5820   18.7750 H   0  0  0  0  0  0  0  0  0  0  0  0
   36.9610   36.0250   19.9410 H   0  0  0  0  0  0  0  0  0  0  0  0
   34.5620   39.9790   20.8560 H   0  0  0  0  0  0  0  0  0  0  0  0
   34.7650   35.2750   24.7170 H   0  0  0  0  0  0  0  0  0  0  0  0
   32.9560   35.2470   24.5180 H   0  0  0  0  0  0  0  0  0  0  0  0
   33.9750   33.9080   23.7990 H   0  0  0  0  0  0  0  0  0  0  0  0
   33.9260   40.8510   25.3010 H   0  0  0  0  0  0  0  0  0  0  0  0
   39.2420   36.4270   16.3200 H   0  0  0  0  0  0  0  0  0  0  0  0
  1  2  1  0  0  0  0
  1 10  1  0  0  0  0
  1 28  1  0  0  0  0
  1 29  1  0  0  0  0
  2  6  1  0  0  0  0
  2 30  1  0  0  0  0
  2 31  1  0  0  0  0
  3  4  1  0  0  0  0
  3  6  1  0  0  0  0
  3 32  1  0  0  0  0
  3 33  1  0  0  0  0
  4 10  1  0  0  0  0
  4 34  1  0  0  0  0
  4 35  1  0  0  0  0
  5  8  2  0  0  0  0
  5 13  1  0  0  0  0
  5 36  1  0  0  0  0
  7 18  1  0  0  0  0
  7 24  2  0  0  0  0
  7 25  1  0  0  0  0
  8 19  1  0  0  0  0
  8 21  1  0  0  0  0
  9 23  2  0  0  0  0
  9 26  1  0  0  0  0
  9 27  1  0  0  0  0
 10 27  1  0  0  0  0
 10 37  1  0  0  0  0
 11 12  1  0  0  0  0
 11 16  1  0  0  0  0
 11 17  2  0  0  0  0
 12 18  2  0  0  0  0
 12 38  1  0  0  0  0
 13 14  2  0  0  0  0
 13 46  1  0  0  0  0
 14 15  1  0  0  0  0
 14 39  1  0  0  0  0
 15 19  2  0  0  0  0
 15 40  1  0  0  0  0
 16 25  1  0  0  0  0
 16 26  2  0  0  0  0
 17 23  1  0  0  0  0
 17 41  1  0  0  0  0
 18 22  1  0  0  0  0
 19 22  1  0  0  0  0
 20 25  1  0  0  0  0
 20 42  1  0  0  0  0
 20 43  1  0  0  0  0
 20 44  1  0  0  0  0
 27 45  1  0  0  0  0
M  END
$$$$
