p38a_2x
 OpenBabel02232411163D
Structure written by MMmdl.
 43 46  0  0  1  0  0  0  0  0999 V2000
   38.2730   36.5530   17.1270 C   0  0  0  0  0  0  0  0  0  0  0  0
   34.5470   35.0660   21.1520 C   0  0  0  0  0  0  0  0  0  0  0  0
   37.4670   36.0940   18.1660 C   0  0  0  0  0  0  0  0  0  0  0  0
   33.9600   39.0870   23.7730 C   0  0  0  0  0  0  0  0  0  0  0  0
   34.6050   37.9440   21.3500 C   0  0  0  0  0  0  0  0  0  0  0  0
   34.9910   37.3120   20.1160 C   0  0  0  0  0  0  0  0  0  0  0  0
   37.6450   36.7370   15.8880 C   0  0  0  0  0  0  0  0  0  0  0  0
   36.2950   36.4630   15.6590 C   0  0  0  0  0  0  0  0  0  0  0  0
   35.5100   35.9890   16.7150 C   0  0  0  0  0  0  0  0  0  0  0  0
   34.2680   37.1440   22.4820 C   0  0  0  0  0  0  0  0  0  0  0  0
   34.5650   39.3530   21.5230 C   0  0  0  0  0  0  0  0  0  0  0  0
   34.9900   35.9610   20.0500 C   0  0  0  0  0  0  0  0  0  0  0  0
   36.1030   35.7960   17.9650 C   0  0  0  0  0  0  0  0  0  0  0  0
   33.9010   34.9400   23.5890 C   0  0  0  0  0  0  0  0  0  0  0  0
   37.9790   35.9330   19.3790 F   0  0  0  0  0  0  0  0  0  0  0  0
   35.3580   35.1630   18.9690 O   0  0  0  0  0  0  0  0  0  0  0  0
   34.2610   39.9380   22.6940 N   0  0  0  0  0  0  0  0  0  0  0  0
   34.4310   33.8620   21.0780 O   0  0  0  0  0  0  0  0  0  0  0  0
   34.2460   35.7440   22.3830 N   0  0  0  0  0  0  0  0  0  0  0  0
   33.9590   37.7100   23.6940 N   0  0  0  0  0  0  0  0  0  0  0  0
   33.5760   39.6750   24.9650 N   0  0  0  0  0  0  0  0  0  0  0  0
   39.3290   36.7940   17.2800 H   0  0  0  0  0  0  0  0  0  0  0  0
   35.2830   37.9490   19.2790 H   0  0  0  0  0  0  0  0  0  0  0  0
   35.8410   36.6290   14.6800 H   0  0  0  0  0  0  0  0  0  0  0  0
   34.4450   35.7870   16.5560 H   0  0  0  0  0  0  0  0  0  0  0  0
   34.7920   40.0190   20.6740 H   0  0  0  0  0  0  0  0  0  0  0  0
   34.5920   35.2010   24.4360 H   0  0  0  0  0  0  0  0  0  0  0  0
   32.8480   35.1640   23.9110 H   0  0  0  0  0  0  0  0  0  0  0  0
   33.9930   33.8460   23.3650 H   0  0  0  0  0  0  0  0  0  0  0  0
   33.7280   40.6980   25.0890 H   0  0  0  0  0  0  0  0  0  0  0  0
   38.3640   37.2380   14.8870 F   0  0  0  0  0  0  0  0  0  0  0  0
   33.4760   39.4040   28.5560 O   0  0  0  0  0  0  0  0  0  0  0  0
   34.8560   39.0700   28.2350 C   0  0  0  0  0  0  0  0  0  0  0  0
   34.8610   38.4980   26.8110 C   0  0  0  0  0  0  0  0  0  0  0  0
   33.4790   38.8680   26.2110 C   0  0  1  0  0  0  0  0  0  0  0  0
   32.7690   39.6850   27.3240 C   0  0  0  0  0  0  0  0  0  0  0  0
   35.1440   38.3280   29.0100 H   0  0  0  0  0  0  0  0  0  0  0  0
   35.4560   40.0040   28.3110 H   0  0  0  0  0  0  0  0  0  0  0  0
   35.6970   38.9270   26.2170 H   0  0  0  0  0  0  0  0  0  0  0  0
   34.9830   37.3890   26.8210 H   0  0  0  0  0  0  0  0  0  0  0  0
   32.8940   37.9350   25.9790 H   0  0  0  0  0  0  0  0  0  0  0  0
   31.7300   39.3380   27.5090 H   0  0  0  0  0  0  0  0  0  0  0  0
   32.8140   40.7830   27.1480 H   0  0  0  0  0  0  0  0  0  0  0  0
  1  3  2  0  0  0  0
  1  7  1  0  0  0  0
  1 22  1  0  0  0  0
  2 12  1  0  0  0  0
  2 18  2  0  0  0  0
  2 19  1  0  0  0  0
  3 13  1  0  0  0  0
  3 15  1  0  0  0  0
  4 17  2  0  0  0  0
  4 20  1  0  0  0  0
  4 21  1  0  0  0  0
  5  6  1  0  0  0  0
  5 10  1  0  0  0  0
  5 11  2  0  0  0  0
  6 12  2  0  0  0  0
  6 23  1  0  0  0  0
  7  8  2  0  0  0  0
  7 31  1  0  0  0  0
  8  9  1  0  0  0  0
  8 24  1  0  0  0  0
  9 13  2  0  0  0  0
  9 25  1  0  0  0  0
 10 19  1  0  0  0  0
 10 20  2  0  0  0  0
 11 17  1  0  0  0  0
 11 26  1  0  0  0  0
 12 16  1  0  0  0  0
 13 16  1  0  0  0  0
 14 19  1  0  0  0  0
 14 27  1  0  0  0  0
 14 28  1  0  0  0  0
 14 29  1  0  0  0  0
 21 30  1  0  0  0  0
 21 35  1  0  0  0  0
 32 33  1  0  0  0  0
 32 36  1  0  0  0  0
 33 34  1  0  0  0  0
 33 37  1  0  0  0  0
 33 38  1  0  0  0  0
 34 35  1  0  0  0  0
 34 39  1  0  0  0  0
 34 40  1  0  0  0  0
 35 36  1  0  0  0  0
 35 41  1  1  0  0  0
 36 42  1  0  0  0  0
 36 43  1  0  0  0  0
M  END
$$$$
