p38a_2n
 OpenBabel02232411163D
Structure written by MMmdl.
 53 56  0  0  0  0  0  0  0  0999 V2000
   38.2720   36.5210   17.1890 C   0  0  0  0  0  0  0  0  0  0  0  0
   34.4740   35.1340   21.2550 C   0  0  0  0  0  0  0  0  0  0  0  0
   37.4880   36.0720   18.2480 C   0  0  0  0  0  0  0  0  0  0  0  0
   33.8960   39.2600   23.7140 C   0  0  0  0  0  0  0  0  0  0  0  0
   34.6100   38.0080   21.3620 C   0  0  0  0  0  0  0  0  0  0  0  0
   35.0340   37.3270   20.1690 C   0  0  0  0  0  0  0  0  0  0  0  0
   37.6240   36.6730   15.9560 C   0  0  0  0  0  0  0  0  0  0  0  0
   36.2760   36.3720   15.7510 C   0  0  0  0  0  0  0  0  0  0  0  0
   35.5130   35.9100   16.8290 C   0  0  0  0  0  0  0  0  0  0  0  0
   34.1710   37.2640   22.4960 C   0  0  0  0  0  0  0  0  0  0  0  0
   34.6160   39.4230   21.4840 C   0  0  0  0  0  0  0  0  0  0  0  0
   35.0010   35.9750   20.1470 C   0  0  0  0  0  0  0  0  0  0  0  0
   36.1250   35.7510   18.0750 C   0  0  0  0  0  0  0  0  0  0  0  0
   38.0200   35.9420   19.4560 F   0  0  0  0  0  0  0  0  0  0  0  0
   35.4060   35.1360   19.1100 O   0  0  0  0  0  0  0  0  0  0  0  0
   34.2820   40.0600   22.6150 N   0  0  0  0  0  0  0  0  0  0  0  0
   34.3650   33.9270   21.2290 O   0  0  0  0  0  0  0  0  0  0  0  0
   34.0980   35.8610   22.4400 N   0  0  0  0  0  0  0  0  0  0  0  0
   33.8230   37.8830   23.6720 N   0  0  0  0  0  0  0  0  0  0  0  0
   33.5850   39.9340   24.8690 N   0  0  0  0  0  0  0  0  0  0  0  0
   39.3270   36.7800   17.3200 H   0  0  0  0  0  0  0  0  0  0  0  0
   35.3800   37.9300   19.3270 H   0  0  0  0  0  0  0  0  0  0  0  0
   35.8060   36.5080   14.7750 H   0  0  0  0  0  0  0  0  0  0  0  0
   34.4480   35.6930   16.6900 H   0  0  0  0  0  0  0  0  0  0  0  0
   34.8950   40.0470   20.6200 H   0  0  0  0  0  0  0  0  0  0  0  0
   33.6690   40.9680   24.8910 H   0  0  0  0  0  0  0  0  0  0  0  0
   38.3230   37.1670   14.9360 F   0  0  0  0  0  0  0  0  0  0  0  0
   33.4850   37.8020   28.0720 C   0  0  0  0  0  0  0  0  0  0  0  0
   34.0800   38.3890   26.7880 C   0  0  0  0  0  0  0  0  0  0  0  0
   33.0590   39.3430   26.1340 C   0  0  0  0  0  0  0  0  0  0  0  0
   31.7080   38.6290   25.9250 C   0  0  0  0  0  0  0  0  0  0  0  0
   31.2240   38.0400   27.2550 C   0  0  0  0  0  0  0  0  0  0  0  0
   32.2170   37.1490   27.8150 O   0  0  0  0  0  0  0  0  0  0  0  0
   33.3320   38.5900   28.8440 H   0  0  0  0  0  0  0  0  0  0  0  0
   34.1070   36.9630   28.4610 H   0  0  0  0  0  0  0  0  0  0  0  0
   34.3370   37.5630   26.0830 H   0  0  0  0  0  0  0  0  0  0  0  0
   35.0150   38.9500   27.0330 H   0  0  0  0  0  0  0  0  0  0  0  0
   32.9000   40.2320   26.8150 H   0  0  0  0  0  0  0  0  0  0  0  0
   30.9520   39.3460   25.5300 H   0  0  0  0  0  0  0  0  0  0  0  0
   31.8330   37.7970   25.1910 H   0  0  0  0  0  0  0  0  0  0  0  0
   30.9910   38.8360   27.9950 H   0  0  0  0  0  0  0  0  0  0  0  0
   30.3590   37.3560   27.1030 H   0  0  0  0  0  0  0  0  0  0  0  0
   33.5260   35.1030   23.6030 C   0  0  0  0  0  0  0  0  0  0  0  0
   33.8310   34.0260   23.5080 H   0  0  0  0  0  0  0  0  0  0  0  0
   33.9520   35.5330   24.5520 H   0  0  0  0  0  0  0  0  0  0  0  0
   31.9960   35.2170   23.6450 C   0  0  0  0  0  0  0  0  0  0  0  0
   31.6910   36.2900   23.5970 H   0  0  0  0  0  0  0  0  0  0  0  0
   31.5330   34.6950   22.7730 H   0  0  0  0  0  0  0  0  0  0  0  0
   31.4320   34.5970   24.9360 C   0  0  0  0  0  0  0  0  0  0  0  0
   30.4190   35.0160   25.1430 H   0  0  0  0  0  0  0  0  0  0  0  0
   31.4060   33.4840   24.8740 H   0  0  0  0  0  0  0  0  0  0  0  0
   32.2740   34.8360   26.0690 O   0  0  0  0  0  0  0  0  0  0  0  0
   32.3100   35.8140   26.2640 H   0  0  0  0  0  0  0  0  0  0  0  0
  1  3  2  0  0  0  0
  1  7  1  0  0  0  0
  1 21  1  0  0  0  0
  2 12  1  0  0  0  0
  2 17  2  0  0  0  0
  2 18  1  0  0  0  0
  3 13  1  0  0  0  0
  3 14  1  0  0  0  0
  4 16  2  0  0  0  0
  4 19  1  0  0  0  0
  4 20  1  0  0  0  0
  5  6  1  0  0  0  0
  5 10  1  0  0  0  0
  5 11  2  0  0  0  0
  6 12  2  0  0  0  0
  6 22  1  0  0  0  0
  7  8  2  0  0  0  0
  7 27  1  0  0  0  0
  8  9  1  0  0  0  0
  8 23  1  0  0  0  0
  9 13  2  0  0  0  0
  9 24  1  0  0  0  0
 10 18  1  0  0  0  0
 10 19  2  0  0  0  0
 11 16  1  0  0  0  0
 11 25  1  0  0  0  0
 12 15  1  0  0  0  0
 13 15  1  0  0  0  0
 18 43  1  0  0  0  0
 20 26  1  0  0  0  0
 20 30  1  0  0  0  0
 28 29  1  0  0  0  0
 28 33  1  0  0  0  0
 28 34  1  0  0  0  0
 28 35  1  0  0  0  0
 29 30  1  0  0  0  0
 29 36  1  0  0  0  0
 29 37  1  0  0  0  0
 30 31  1  0  0  0  0
 30 38  1  0  0  0  0
 31 32  1  0  0  0  0
 31 39  1  0  0  0  0
 31 40  1  0  0  0  0
 32 33  1  0  0  0  0
 32 41  1  0  0  0  0
 32 42  1  0  0  0  0
 43 44  1  0  0  0  0
 43 45  1  0  0  0  0
 43 46  1  0  0  0  0
 46 47  1  0  0  0  0
 46 48  1  0  0  0  0
 46 49  1  0  0  0  0
 49 50  1  0  0  0  0
 49 51  1  0  0  0  0
 49 52  1  0  0  0  0
 52 53  1  0  0  0  0
M  END
$$$$
