18658-1
                    3D
 Schrodinger Suite 2022-3.
 47 48  0  0  1  0  0  0  0  0999 V2000
   25.7470    4.5870   30.8720 C   0  0  0  0  0  0  0  0  0  0  0  0
   24.4820    4.8510   30.3320 C   0  0  0  0  0  0  0  0  0  0  0  0
   23.3710    4.0140   30.5900 C   0  0  0  0  0  0  0  0  0  0  0  0
   23.5600    2.8810   31.3880 C   0  0  0  0  0  0  0  0  0  0  0  0
   24.8270    2.6210   31.9300 C   0  0  0  0  0  0  0  0  0  0  0  0
   25.9240    3.4690   31.6820 C   0  0  0  0  0  0  0  0  0  0  0  0
   22.0260    4.3220   29.9980 C   0  0  0  0  0  0  0  0  0  0  0  0
   21.2190    5.3130   30.8260 C   0  0  0  0  0  0  0  0  0  0  0  0
   21.8050    6.5990   30.8870 N   0  0  0  0  0  0  0  0  0  0  0  0
   21.2480    7.7560   31.4700 C   0  0  0  0  0  0  0  0  0  0  0  0
   20.1490    5.0570   31.3340 O   0  0  0  0  0  0  0  0  0  0  0  0
   22.0070    8.8860   31.1910 N   0  0  0  0  0  0  0  0  0  0  0  0
   21.5420   10.0720   31.6410 C   0  0  0  0  0  0  0  0  0  0  0  0
   20.3340   10.2500   32.3770 C   0  0  0  0  0  0  0  0  0  0  0  0
   19.6060    9.0590   32.6970 C   0  0  0  0  0  0  0  0  0  0  0  0
   20.0800    7.8060   32.2240 C   0  0  0  0  0  0  0  0  0  0  0  0
   25.1490    1.5610   32.7520 O   0  0  0  0  0  0  0  0  0  0  0  0
   24.1600    0.5160   32.9320 C   0  0  0  0  0  0  0  0  0  0  0  0
   24.1840    5.9160   29.4860 O   0  0  0  0  0  0  0  0  0  0  0  0
   25.1810    6.9640   29.3490 C   0  0  0  0  0  0  0  0  0  0  0  0
   18.4560    9.1100   33.4430 N   0  0  0  0  0  0  0  0  0  0  0  0
   19.9150   11.5550   32.7090 C   0  0  0  0  0  0  0  0  0  0  0  0
   22.2300   11.2070   31.3640 O   0  0  0  0  0  0  0  0  0  0  0  0
   23.5530   11.1060   30.7360 C   0  0  0  0  0  0  0  0  0  0  0  0
   23.4420   11.0120   29.2180 C   0  0  0  0  0  0  0  0  0  0  0  0
   19.6190   12.6550   32.9310 N   0  0  0  0  0  0  0  0  0  0  0  0
   26.6020    5.2350   30.6630 H   0  0  0  0  0  0  0  0  0  0  0  0
   22.7240    2.2080   31.5800 H   0  0  0  0  0  0  0  0  0  0  0  0
   19.5100    6.9000   32.4410 H   0  0  0  0  0  0  0  0  0  0  0  0
   21.4330    3.3770   29.8960 H   0  0  0  0  0  0  0  0  0  0  0  0
   22.1710    4.7640   28.9740 H   0  0  0  0  0  0  0  0  0  0  0  0
   22.7310    6.7410   30.4080 H   0  0  0  0  0  0  0  0  0  0  0  0
   23.8800    0.0790   31.9480 H   0  0  0  0  0  0  0  0  0  0  0  0
   24.7240   -0.2230   33.5500 H   0  0  0  0  0  0  0  0  0  0  0  0
   23.2810    0.9100   33.4850 H   0  0  0  0  0  0  0  0  0  0  0  0
   24.6270    7.7220   28.7500 H   0  0  0  0  0  0  0  0  0  0  0  0
   25.4650    7.3670   30.3450 H   0  0  0  0  0  0  0  0  0  0  0  0
   26.0590    6.5700   28.7930 H   0  0  0  0  0  0  0  0  0  0  0  0
   17.9470    8.2430   33.7000 H   0  0  0  0  0  0  0  0  0  0  0  0
   18.0640    9.9980   33.7560 H   0  0  0  0  0  0  0  0  0  0  0  0
   24.1180   10.2360   31.1500 H   0  0  0  0  0  0  0  0  0  0  0  0
   23.9920   12.0850   31.0520 H   0  0  0  0  0  0  0  0  0  0  0  0
   23.1140   12.3440   28.7550 O   0  0  0  0  0  0  0  0  0  0  0  0
   24.4310   10.7220   28.7800 H   0  0  0  0  0  0  0  0  0  0  0  0
   22.6420   10.3070   28.8960 H   0  0  0  0  0  0  0  0  0  0  0  0
   26.9060    3.2510   32.1120 H   0  0  0  0  0  0  0  0  0  0  0  0
   22.9520   12.2720   27.7560 H   0  0  0  0  0  0  0  0  0  0  0  0
  1  2  1  0  0  0  0
  1  6  2  0  0  0  0
  1 27  1  0  0  0  0
  2  3  2  0  0  0  0
  2 19  1  0  0  0  0
  3  4  1  0  0  0  0
  3  7  1  0  0  0  0
  4  5  2  0  0  0  0
  4 28  1  0  0  0  0
  5  6  1  0  0  0  0
  5 17  1  0  0  0  0
  6 46  1  0  0  0  0
  7  8  1  0  0  0  0
  7 30  1  0  0  0  0
  7 31  1  0  0  0  0
  8  9  1  0  0  0  0
  8 11  2  0  0  0  0
  9 10  1  0  0  0  0
  9 32  1  0  0  0  0
 10 12  1  0  0  0  0
 10 16  2  0  0  0  0
 12 13  2  0  0  0  0
 13 14  1  0  0  0  0
 13 23  1  0  0  0  0
 14 15  2  0  0  0  0
 14 22  1  0  0  0  0
 15 16  1  0  0  0  0
 15 21  1  0  0  0  0
 16 29  1  0  0  0  0
 17 18  1  0  0  0  0
 18 33  1  0  0  0  0
 18 34  1  0  0  0  0
 18 35  1  0  0  0  0
 19 20  1  0  0  0  0
 20 36  1  0  0  0  0
 20 37  1  0  0  0  0
 20 38  1  0  0  0  0
 21 39  1  0  0  0  0
 21 40  1  0  0  0  0
 22 26  3  0  0  0  0
 23 24  1  0  0  0  0
 24 25  1  0  0  0  0
 24 41  1  0  0  0  0
 24 42  1  0  0  0  0
 25 43  1  0  0  0  0
 25 44  1  0  0  0  0
 25 45  1  0  0  0  0
 43 47  1  0  0  0  0
M  END
$$$$
