p38a_2aa
 OpenBabel02232411163D
Structure written by MMmdl.
 43 45  0  0  0  0  0  0  0  0999 V2000
   36.3160   35.9880   15.8850 C   0  0  0  0  0  0  0  0  0  0  0  0
   34.6140   35.0550   21.5080 C   0  0  0  0  0  0  0  0  0  0  0  0
   35.6250   35.5530   17.0110 C   0  0  0  0  0  0  0  0  0  0  0  0
   34.4190   39.1440   24.0780 C   0  0  0  0  0  0  0  0  0  0  0  0
   34.0790   39.0950   26.5690 C   0  0  0  0  0  0  0  0  0  0  0  0
   34.8350   37.9180   21.6460 C   0  0  0  0  0  0  0  0  0  0  0  0
   35.1720   37.2460   20.4200 C   0  0  0  0  0  0  0  0  0  0  0  0
   37.6150   36.4700   16.0960 C   0  0  0  0  0  0  0  0  0  0  0  0
   38.2350   36.4890   17.3480 C   0  0  0  0  0  0  0  0  0  0  0  0
   37.5070   36.0770   18.4710 C   0  0  0  0  0  0  0  0  0  0  0  0
   34.5550   37.1600   22.8230 C   0  0  0  0  0  0  0  0  0  0  0  0
   34.7800   39.3320   21.7670 C   0  0  0  0  0  0  0  0  0  0  0  0
   35.1110   35.8950   20.3840 C   0  0  0  0  0  0  0  0  0  0  0  0
   36.2000   35.6120   18.2980 C   0  0  0  0  0  0  0  0  0  0  0  0
   34.1570   34.9920   23.9910 C   0  0  0  0  0  0  0  0  0  0  0  0
   34.4010   35.0530   16.9000 F   0  0  0  0  0  0  0  0  0  0  0  0
   35.4260   35.0510   19.3200 O   0  0  0  0  0  0  0  0  0  0  0  0
   34.5610   39.9570   22.9350 N   0  0  0  0  0  0  0  0  0  0  0  0
   34.3460   33.8760   21.4390 O   0  0  0  0  0  0  0  0  0  0  0  0
   34.4520   35.7620   22.7510 N   0  0  0  0  0  0  0  0  0  0  0  0
   34.3610   37.7660   24.0400 N   0  0  0  0  0  0  0  0  0  0  0  0
   34.3960   39.7890   25.2970 N   0  0  0  0  0  0  0  0  0  0  0  0
   35.8630   35.9810   14.8900 H   0  0  0  0  0  0  0  0  0  0  0  0
   35.3270   39.1150   27.4930 C   0  0  0  0  0  0  0  0  0  0  0  0
   35.4870   37.8530   19.5670 H   0  0  0  0  0  0  0  0  0  0  0  0
   39.2620   36.8500   17.4580 H   0  0  0  0  0  0  0  0  0  0  0  0
   37.9580   36.1430   19.4630 H   0  0  0  0  0  0  0  0  0  0  0  0
   34.9080   39.9640   20.8720 H   0  0  0  0  0  0  0  0  0  0  0  0
   34.9080   35.2450   24.7890 H   0  0  0  0  0  0  0  0  0  0  0  0
   33.1340   35.2530   24.3760 H   0  0  0  0  0  0  0  0  0  0  0  0
   34.2040   33.8910   23.7860 H   0  0  0  0  0  0  0  0  0  0  0  0
   34.2570   40.8180   25.3200 H   0  0  0  0  0  0  0  0  0  0  0  0
   38.2740   36.9670   15.0510 F   0  0  0  0  0  0  0  0  0  0  0  0
   32.8500   39.7510   27.2580 C   0  0  0  0  0  0  0  0  0  0  0  0
   31.8150   40.0150   26.3010 O   0  0  0  0  0  0  0  0  0  0  0  0
   32.0670   40.8640   25.8330 H   0  0  0  0  0  0  0  0  0  0  0  0
   32.3870   39.0300   27.9740 H   0  0  0  0  0  0  0  0  0  0  0  0
   33.1200   40.7060   27.7630 H   0  0  0  0  0  0  0  0  0  0  0  0
   35.7770   40.4380   27.8100 O   0  0  0  0  0  0  0  0  0  0  0  0
   35.1050   38.5500   28.4300 H   0  0  0  0  0  0  0  0  0  0  0  0
   36.2050   38.6870   26.9520 H   0  0  0  0  0  0  0  0  0  0  0  0
   35.1970   40.8330   28.5070 H   0  0  0  0  0  0  0  0  0  0  0  0
   33.8320   38.0070   26.3780 H   0  0  0  0  0  0  0  0  0  0  0  0
  1  3  2  0  0  0  0
  1  8  1  0  0  0  0
  1 23  1  0  0  0  0
  2 13  1  0  0  0  0
  2 19  2  0  0  0  0
  2 20  1  0  0  0  0
  3 14  1  0  0  0  0
  3 16  1  0  0  0  0
  4 18  2  0  0  0  0
  4 21  1  0  0  0  0
  4 22  1  0  0  0  0
  5 22  1  0  0  0  0
  5 24  1  0  0  0  0
  5 34  1  0  0  0  0
  5 43  1  0  0  0  0
  6  7  1  0  0  0  0
  6 11  1  0  0  0  0
  6 12  2  0  0  0  0
  7 13  2  0  0  0  0
  7 25  1  0  0  0  0
  8  9  2  0  0  0  0
  8 33  1  0  0  0  0
  9 10  1  0  0  0  0
  9 26  1  0  0  0  0
 10 14  2  0  0  0  0
 10 27  1  0  0  0  0
 11 20  1  0  0  0  0
 11 21  2  0  0  0  0
 12 18  1  0  0  0  0
 12 28  1  0  0  0  0
 13 17  1  0  0  0  0
 14 17  1  0  0  0  0
 15 20  1  0  0  0  0
 15 29  1  0  0  0  0
 15 30  1  0  0  0  0
 15 31  1  0  0  0  0
 22 32  1  0  0  0  0
 24 39  1  0  0  0  0
 24 40  1  0  0  0  0
 24 41  1  0  0  0  0
 34 35  1  0  0  0  0
 34 37  1  0  0  0  0
 34 38  1  0  0  0  0
 35 36  1  0  0  0  0
 39 42  1  0  0  0  0
M  END
$$$$
