p38a_2aa
 OpenBabel02232411163D
Structure written by MMmdl.
 43 45  0  0  0  0  0  0  0  0999 V2000
   36.3520   36.0270   15.7950 C   0  0  0  0  0  0  0  0  0  0  0  0
   34.5820   35.0290   21.3640 C   0  0  0  0  0  0  0  0  0  0  0  0
   35.6820   35.5490   16.9170 C   0  0  0  0  0  0  0  0  0  0  0  0
   34.2820   39.1510   23.8620 C   0  0  0  0  0  0  0  0  0  0  0  0
   33.7720   39.1660   26.3350 C   0  0  0  0  0  0  0  0  0  0  0  0
   34.8030   37.8960   21.4770 C   0  0  0  0  0  0  0  0  0  0  0  0
   35.1990   37.2060   20.2790 C   0  0  0  0  0  0  0  0  0  0  0  0
   37.6430   36.5290   16.0040 C   0  0  0  0  0  0  0  0  0  0  0  0
   38.2760   36.5340   17.2500 C   0  0  0  0  0  0  0  0  0  0  0  0
   37.5680   36.0830   18.3700 C   0  0  0  0  0  0  0  0  0  0  0  0
   34.4450   37.1540   22.6420 C   0  0  0  0  0  0  0  0  0  0  0  0
   34.7700   39.3120   21.5780 C   0  0  0  0  0  0  0  0  0  0  0  0
   35.1370   35.8550   20.2560 C   0  0  0  0  0  0  0  0  0  0  0  0
   36.2700   35.5930   18.1980 C   0  0  0  0  0  0  0  0  0  0  0  0
   33.9530   35.0090   23.8120 C   0  0  0  0  0  0  0  0  0  0  0  0
   34.4680   35.0270   16.8060 F   0  0  0  0  0  0  0  0  0  0  0  0
   35.5230   35.0010   19.2260 O   0  0  0  0  0  0  0  0  0  0  0  0
   34.5100   39.9530   22.7300 N   0  0  0  0  0  0  0  0  0  0  0  0
   34.3340   33.8460   21.3030 O   0  0  0  0  0  0  0  0  0  0  0  0
   34.3360   35.7570   22.5820 N   0  0  0  0  0  0  0  0  0  0  0  0
   34.1840   37.7790   23.8400 N   0  0  0  0  0  0  0  0  0  0  0  0
   34.2140   39.8210   25.0720 N   0  0  0  0  0  0  0  0  0  0  0  0
   35.8870   36.0350   14.8070 H   0  0  0  0  0  0  0  0  0  0  0  0
   34.5610   39.8210   27.4950 C   0  0  0  0  0  0  0  0  0  0  0  0
   35.5590   37.8030   19.4380 H   0  0  0  0  0  0  0  0  0  0  0  0
   39.2950   36.9140   17.3600 H   0  0  0  0  0  0  0  0  0  0  0  0
   38.0240   36.1410   19.3600 H   0  0  0  0  0  0  0  0  0  0  0  0
   34.9540   39.9320   20.6860 H   0  0  0  0  0  0  0  0  0  0  0  0
   34.6580   35.2670   24.6500 H   0  0  0  0  0  0  0  0  0  0  0  0
   32.9130   35.2940   24.1270 H   0  0  0  0  0  0  0  0  0  0  0  0
   33.9960   33.9050   23.6260 H   0  0  0  0  0  0  0  0  0  0  0  0
   34.0800   40.8480   25.0480 H   0  0  0  0  0  0  0  0  0  0  0  0
   38.2810   37.0610   14.9640 F   0  0  0  0  0  0  0  0  0  0  0  0
   32.2230   39.2710   26.4820 C   0  0  0  0  0  0  0  0  0  0  0  0
   31.8130   39.6960   27.7790 O   0  0  0  0  0  0  0  0  0  0  0  0
   32.2930   40.5540   27.9870 H   0  0  0  0  0  0  0  0  0  0  0  0
   31.8080   39.9910   25.7380 H   0  0  0  0  0  0  0  0  0  0  0  0
   31.7580   38.2610   26.3720 H   0  0  0  0  0  0  0  0  0  0  0  0
   34.0230   41.1040   27.8880 O   0  0  0  0  0  0  0  0  0  0  0  0
   34.4620   39.2110   28.4260 H   0  0  0  0  0  0  0  0  0  0  0  0
   35.6310   39.9640   27.2150 H   0  0  0  0  0  0  0  0  0  0  0  0
   33.9390   41.6790   27.0610 H   0  0  0  0  0  0  0  0  0  0  0  0
   34.0670   38.0740   26.3070 H   0  0  0  0  0  0  0  0  0  0  0  0
  1  3  2  0  0  0  0
  1  8  1  0  0  0  0
  1 23  1  0  0  0  0
  2 13  1  0  0  0  0
  2 19  2  0  0  0  0
  2 20  1  0  0  0  0
  3 14  1  0  0  0  0
  3 16  1  0  0  0  0
  4 18  2  0  0  0  0
  4 21  1  0  0  0  0
  4 22  1  0  0  0  0
  5 22  1  0  0  0  0
  5 24  1  0  0  0  0
  5 34  1  0  0  0  0
  5 43  1  0  0  0  0
  6  7  1  0  0  0  0
  6 11  1  0  0  0  0
  6 12  2  0  0  0  0
  7 13  2  0  0  0  0
  7 25  1  0  0  0  0
  8  9  2  0  0  0  0
  8 33  1  0  0  0  0
  9 10  1  0  0  0  0
  9 26  1  0  0  0  0
 10 14  2  0  0  0  0
 10 27  1  0  0  0  0
 11 20  1  0  0  0  0
 11 21  2  0  0  0  0
 12 18  1  0  0  0  0
 12 28  1  0  0  0  0
 13 17  1  0  0  0  0
 14 17  1  0  0  0  0
 15 20  1  0  0  0  0
 15 29  1  0  0  0  0
 15 30  1  0  0  0  0
 15 31  1  0  0  0  0
 22 32  1  0  0  0  0
 24 39  1  0  0  0  0
 24 40  1  0  0  0  0
 24 41  1  0  0  0  0
 34 35  1  0  0  0  0
 34 37  1  0  0  0  0
 34 38  1  0  0  0  0
 35 36  1  0  0  0  0
 39 42  1  0  0  0  0
M  END
$$$$
