p38a_2p
 OpenBabel02232411163D
Structure written by MMmdl.
 58 61  0  0  0  0  0  0  0  0999 V2000
   36.3560   36.0160   15.8250 C   0  0  0  0  0  0  0  0  0  0  0  0
   34.6380   35.0000   21.4390 C   0  0  0  0  0  0  0  0  0  0  0  0
   35.6380   35.5590   16.9260 C   0  0  0  0  0  0  0  0  0  0  0  0
   34.0990   39.0990   23.9480 C   0  0  0  0  0  0  0  0  0  0  0  0
   34.7250   37.8620   21.5630 C   0  0  0  0  0  0  0  0  0  0  0  0
   35.0920   37.2030   20.3400 C   0  0  0  0  0  0  0  0  0  0  0  0
   37.6490   36.4920   16.0770 C   0  0  0  0  0  0  0  0  0  0  0  0
   38.2390   36.4870   17.3440 C   0  0  0  0  0  0  0  0  0  0  0  0
   37.4830   36.0570   18.4410 C   0  0  0  0  0  0  0  0  0  0  0  0
   34.4340   37.1070   22.7390 C   0  0  0  0  0  0  0  0  0  0  0  0
   34.6630   39.2790   21.6720 C   0  0  0  0  0  0  0  0  0  0  0  0
   35.0670   35.8510   20.3000 C   0  0  0  0  0  0  0  0  0  0  0  0
   36.1810   35.5970   18.2270 C   0  0  0  0  0  0  0  0  0  0  0  0
   34.4170   35.0620   16.7740 F   0  0  0  0  0  0  0  0  0  0  0  0
   35.3770   35.0250   19.2200 O   0  0  0  0  0  0  0  0  0  0  0  0
   34.3620   39.9050   22.8140 N   0  0  0  0  0  0  0  0  0  0  0  0
   34.4420   33.8060   21.3780 O   0  0  0  0  0  0  0  0  0  0  0  0
   34.4740   35.7000   22.6910 N   0  0  0  0  0  0  0  0  0  0  0  0
   34.1050   37.7180   23.9250 N   0  0  0  0  0  0  0  0  0  0  0  0
   33.8750   39.7970   25.1090 N   0  0  0  0  0  0  0  0  0  0  0  0
   35.9260   36.0280   14.8220 H   0  0  0  0  0  0  0  0  0  0  0  0
   35.3930   37.8190   19.4880 H   0  0  0  0  0  0  0  0  0  0  0  0
   39.2640   36.8440   17.4850 H   0  0  0  0  0  0  0  0  0  0  0  0
   37.9070   36.1070   19.4460 H   0  0  0  0  0  0  0  0  0  0  0  0
   34.8640   39.9070   20.7870 H   0  0  0  0  0  0  0  0  0  0  0  0
   33.8330   40.8380   25.0460 H   0  0  0  0  0  0  0  0  0  0  0  0
   38.3330   37.0080   15.0580 F   0  0  0  0  0  0  0  0  0  0  0  0
   33.5740   37.7490   28.3660 C   0  0  0  0  0  0  0  0  0  0  0  0
   34.1770   38.1530   27.0120 C   0  0  0  0  0  0  0  0  0  0  0  0
   33.3330   39.2840   26.4030 C   0  0  0  0  0  0  0  0  0  0  0  0
   31.8580   38.8440   26.2860 C   0  0  0  0  0  0  0  0  0  0  0  0
   31.3560   38.4250   27.6750 C   0  0  0  0  0  0  0  0  0  0  0  0
   32.1790   37.3870   28.2510 O   0  0  0  0  0  0  0  0  0  0  0  0
   33.6750   38.5750   29.1080 H   0  0  0  0  0  0  0  0  0  0  0  0
   34.0370   36.8060   28.7390 H   0  0  0  0  0  0  0  0  0  0  0  0
   34.1900   37.2650   26.3320 H   0  0  0  0  0  0  0  0  0  0  0  0
   35.2290   38.4950   27.1560 H   0  0  0  0  0  0  0  0  0  0  0  0
   33.3920   40.1870   27.0880 H   0  0  0  0  0  0  0  0  0  0  0  0
   31.2380   39.6850   25.8970 H   0  0  0  0  0  0  0  0  0  0  0  0
   31.7760   37.9850   25.5780 H   0  0  0  0  0  0  0  0  0  0  0  0
   31.3410   39.2960   28.3700 H   0  0  0  0  0  0  0  0  0  0  0  0
   30.3610   37.9300   27.6130 H   0  0  0  0  0  0  0  0  0  0  0  0
   34.4760   34.8870   23.9500 C   0  0  0  0  0  0  0  0  0  0  0  0
   35.2320   34.0640   23.8200 H   0  0  0  0  0  0  0  0  0  0  0  0
   34.8020   35.5370   24.8080 H   0  0  0  0  0  0  0  0  0  0  0  0
   33.0980   34.2680   24.2740 C   0  0  0  0  0  0  0  0  0  0  0  0
   32.3650   35.0930   24.4600 H   0  0  0  0  0  0  0  0  0  0  0  0
   32.7560   33.6560   23.4040 H   0  0  0  0  0  0  0  0  0  0  0  0
   33.2400   33.3860   25.5200 C   0  0  0  0  0  0  0  0  0  0  0  0
   33.5900   34.0290   26.3740 H   0  0  0  0  0  0  0  0  0  0  0  0
   34.0680   32.6440   25.3470 H   0  0  0  0  0  0  0  0  0  0  0  0
   31.7790   32.5230   25.9830 S   0  0  0  0  0  0  0  0  0  0  0  0
   30.6170   33.4350   26.0600 O   0  0  0  0  0  0  0  0  0  0  0  0
   31.9890   31.8440   27.2890 O   0  0  0  0  0  0  0  0  0  0  0  0
   31.4980   31.3430   24.7360 C   0  0  0  0  0  0  0  0  0  0  0  0
   32.4260   30.7650   24.4900 H   0  0  0  0  0  0  0  0  0  0  0  0
   30.7270   30.5860   25.0320 H   0  0  0  0  0  0  0  0  0  0  0  0
   31.1410   31.8030   23.7800 H   0  0  0  0  0  0  0  0  0  0  0  0
  1  3  2  0  0  0  0
  1  7  1  0  0  0  0
  1 21  1  0  0  0  0
  2 12  1  0  0  0  0
  2 17  2  0  0  0  0
  2 18  1  0  0  0  0
  3 13  1  0  0  0  0
  3 14  1  0  0  0  0
  4 16  2  0  0  0  0
  4 19  1  0  0  0  0
  4 20  1  0  0  0  0
  5  6  1  0  0  0  0
  5 10  1  0  0  0  0
  5 11  2  0  0  0  0
  6 12  2  0  0  0  0
  6 22  1  0  0  0  0
  7  8  2  0  0  0  0
  7 27  1  0  0  0  0
  8  9  1  0  0  0  0
  8 23  1  0  0  0  0
  9 13  2  0  0  0  0
  9 24  1  0  0  0  0
 10 18  1  0  0  0  0
 10 19  2  0  0  0  0
 11 16  1  0  0  0  0
 11 25  1  0  0  0  0
 12 15  1  0  0  0  0
 13 15  1  0  0  0  0
 18 43  1  0  0  0  0
 20 26  1  0  0  0  0
 20 30  1  0  0  0  0
 28 29  1  0  0  0  0
 28 33  1  0  0  0  0
 28 34  1  0  0  0  0
 28 35  1  0  0  0  0
 29 30  1  0  0  0  0
 29 36  1  0  0  0  0
 29 37  1  0  0  0  0
 30 31  1  0  0  0  0
 30 38  1  0  0  0  0
 31 32  1  0  0  0  0
 31 39  1  0  0  0  0
 31 40  1  0  0  0  0
 32 33  1  0  0  0  0
 32 41  1  0  0  0  0
 32 42  1  0  0  0  0
 43 44  1  0  0  0  0
 43 45  1  0  0  0  0
 43 46  1  0  0  0  0
 46 47  1  0  0  0  0
 46 48  1  0  0  0  0
 46 49  1  0  0  0  0
 49 50  1  0  0  0  0
 49 51  1  0  0  0  0
 49 52  1  0  0  0  0
 52 53  2  0  0  0  0
 52 54  2  0  0  0  0
 52 55  1  0  0  0  0
 55 56  1  0  0  0  0
 55 57  1  0  0  0  0
 55 58  1  0  0  0  0
M  END
$$$$
