p38a_3flz
 OpenBabel02232411163D
Structure written by MMmdl.
 46 49  0  0  0  0  0  0  0  0999 V2000
   35.2720   35.2250   18.6890 O   0  0  0  0  0  0  0  0  0  0  0  0
   35.0620   37.3050   19.9570 C   0  0  0  0  0  0  0  0  0  0  0  0
   34.5600   37.0870   22.3800 C   0  0  0  0  0  0  0  0  0  0  0  0
   34.7780   37.9040   21.2310 C   0  0  0  0  0  0  0  0  0  0  0  0
   34.7050   39.3110   21.4180 C   0  0  0  0  0  0  0  0  0  0  0  0
   34.2710   39.0100   23.7130 C   0  0  0  0  0  0  0  0  0  0  0  0
   35.0500   35.9550   19.8510 C   0  0  0  0  0  0  0  0  0  0  0  0
   36.2260   35.7730   17.8050 C   0  0  0  0  0  0  0  0  0  0  0  0
   34.4620   34.8210   23.4580 C   0  0  0  0  0  0  0  0  0  0  0  0
   31.9490   39.6030   26.1520 C   0  0  0  0  0  0  0  0  0  0  0  0
   35.7970   35.9340   16.4850 C   0  0  0  0  0  0  0  0  0  0  0  0
   38.0540   36.6330   15.9270 C   0  0  0  0  0  0  0  0  0  0  0  0
   36.7330   36.3790   15.5460 C   0  0  0  0  0  0  0  0  0  0  0  0
   38.4600   36.4420   17.2530 C   0  0  0  0  0  0  0  0  0  0  0  0
   34.5390   33.8450   20.8800 O   0  0  0  0  0  0  0  0  0  0  0  0
   34.7060   35.0410   20.9680 C   0  0  0  0  0  0  0  0  0  0  0  0
   37.5420   36.0160   18.2170 C   0  0  0  0  0  0  0  0  0  0  0  0
   34.4570   39.8730   22.6080 N   0  0  0  0  0  0  0  0  0  0  0  0
   34.5800   35.6880   22.2530 N   0  0  0  0  0  0  0  0  0  0  0  0
   34.3110   37.6380   23.6160 N   0  0  0  0  0  0  0  0  0  0  0  0
   34.1360   39.6520   24.9310 N   0  0  0  0  0  0  0  0  0  0  0  0
   33.4350   39.1740   26.1680 C   0  0  0  0  0  0  0  0  0  0  0  0
   33.5770   37.6870   26.5230 C   0  0  0  0  0  0  0  0  0  0  0  0
   32.5100   36.7590   25.9270 C   0  0  0  0  0  0  0  0  0  0  0  0
   31.1710   37.3040   25.9650 O   0  0  0  0  0  0  0  0  0  0  0  0
   31.0750   38.6160   25.3790 C   0  0  0  0  0  0  0  0  0  0  0  0
   35.2900   37.9620   19.1160 H   0  0  0  0  0  0  0  0  0  0  0  0
   34.8370   39.9880   20.5580 H   0  0  0  0  0  0  0  0  0  0  0  0
   34.9770   33.8420   23.2720 H   0  0  0  0  0  0  0  0  0  0  0  0
   34.9470   35.3150   24.3430 H   0  0  0  0  0  0  0  0  0  0  0  0
   33.3820   34.6280   23.6920 H   0  0  0  0  0  0  0  0  0  0  0  0
   31.6110   39.6490   27.2170 H   0  0  0  0  0  0  0  0  0  0  0  0
   31.8350   40.6230   25.7180 H   0  0  0  0  0  0  0  0  0  0  0  0
   34.7610   35.7560   16.1940 H   0  0  0  0  0  0  0  0  0  0  0  0
   38.7610   37.0150   15.1930 H   0  0  0  0  0  0  0  0  0  0  0  0
   36.4170   36.5550   14.5180 H   0  0  0  0  0  0  0  0  0  0  0  0
   39.4910   36.6570   17.5400 H   0  0  0  0  0  0  0  0  0  0  0  0
   37.8420   35.9190   19.2590 H   0  0  0  0  0  0  0  0  0  0  0  0
   34.0930   40.6990   24.8870 H   0  0  0  0  0  0  0  0  0  0  0  0
   33.9580   39.7710   26.9830 H   0  0  0  0  0  0  0  0  0  0  0  0
   34.5890   37.3180   26.2140 H   0  0  0  0  0  0  0  0  0  0  0  0
   33.5310   37.6210   27.6430 H   0  0  0  0  0  0  0  0  0  0  0  0
   32.7360   36.5150   24.8660 H   0  0  0  0  0  0  0  0  0  0  0  0
   32.4040   35.8390   26.5500 H   0  0  0  0  0  0  0  0  0  0  0  0
   29.9980   38.8620   25.4980 H   0  0  0  0  0  0  0  0  0  0  0  0
   31.3720   38.5690   24.3090 H   0  0  0  0  0  0  0  0  0  0  0  0
  1  7  1  0  0  0  0
  1  8  1  0  0  0  0
  2  4  1  0  0  0  0
  2  7  2  0  0  0  0
  2 27  1  0  0  0  0
  3  4  2  0  0  0  0
  3 19  1  0  0  0  0
  3 20  1  0  0  0  0
  4  5  1  0  0  0  0
  5 18  2  0  0  0  0
  5 28  1  0  0  0  0
  6 18  1  0  0  0  0
  6 20  2  0  0  0  0
  6 21  1  0  0  0  0
  7 16  1  0  0  0  0
  8 11  2  0  0  0  0
  8 17  1  0  0  0  0
  9 19  1  0  0  0  0
  9 29  1  0  0  0  0
  9 30  1  0  0  0  0
  9 31  1  0  0  0  0
 10 22  1  0  0  0  0
 10 26  1  0  0  0  0
 10 32  1  0  0  0  0
 10 33  1  0  0  0  0
 11 13  1  0  0  0  0
 11 34  1  0  0  0  0
 12 13  2  0  0  0  0
 12 14  1  0  0  0  0
 12 35  1  0  0  0  0
 13 36  1  0  0  0  0
 14 17  2  0  0  0  0
 14 37  1  0  0  0  0
 15 16  2  0  0  0  0
 16 19  1  0  0  0  0
 17 38  1  0  0  0  0
 21 22  1  0  0  0  0
 21 39  1  0  0  0  0
 22 23  1  0  0  0  0
 22 40  1  0  0  0  0
 23 24  1  0  0  0  0
 23 41  1  0  0  0  0
 23 42  1  0  0  0  0
 24 25  1  0  0  0  0
 24 43  1  0  0  0  0
 24 44  1  0  0  0  0
 25 26  1  0  0  0  0
 26 45  1  0  0  0  0
 26 46  1  0  0  0  0
M  END
$$$$
