p38a_2bb
 OpenBabel02232411163D
Structure written by MMmdl.
 44 46  0  0  0  0  0  0  0  0999 V2000
   38.2170   36.4920   17.2400 C   0  0  0  0  0  0  0  0  0  0  0  0
   34.6400   35.1920   21.4250 C   0  0  0  0  0  0  0  0  0  0  0  0
   37.4250   36.0770   18.3080 C   0  0  0  0  0  0  0  0  0  0  0  0
   34.3420   39.2950   23.9670 C   0  0  0  0  0  0  0  0  0  0  0  0
   33.9920   39.2180   26.4580 C   0  0  0  0  0  0  0  0  0  0  0  0
   34.7310   38.0640   21.5300 C   0  0  0  0  0  0  0  0  0  0  0  0
   35.0220   37.3960   20.2900 C   0  0  0  0  0  0  0  0  0  0  0  0
   37.5710   36.6370   16.0050 C   0  0  0  0  0  0  0  0  0  0  0  0
   36.2160   36.3610   15.8080 C   0  0  0  0  0  0  0  0  0  0  0  0
   35.4430   35.9420   16.8970 C   0  0  0  0  0  0  0  0  0  0  0  0
   34.5230   37.3070   22.7220 C   0  0  0  0  0  0  0  0  0  0  0  0
   34.6480   39.4760   21.6460 C   0  0  0  0  0  0  0  0  0  0  0  0
   35.0190   36.0440   20.2660 C   0  0  0  0  0  0  0  0  0  0  0  0
   36.0520   35.7950   18.1460 C   0  0  0  0  0  0  0  0  0  0  0  0
   34.2680   35.1360   23.9240 C   0  0  0  0  0  0  0  0  0  0  0  0
   37.9640   35.9430   19.5130 F   0  0  0  0  0  0  0  0  0  0  0  0
   35.3100   35.2150   19.1840 O   0  0  0  0  0  0  0  0  0  0  0  0
   34.4520   40.1000   22.8190 N   0  0  0  0  0  0  0  0  0  0  0  0
   34.4560   33.9960   21.3930 O   0  0  0  0  0  0  0  0  0  0  0  0
   34.4890   35.9060   22.6670 N   0  0  0  0  0  0  0  0  0  0  0  0
   34.3300   37.9150   23.9410 N   0  0  0  0  0  0  0  0  0  0  0  0
   34.2970   39.9460   25.1840 N   0  0  0  0  0  0  0  0  0  0  0  0
   39.2780   36.7300   17.3650 H   0  0  0  0  0  0  0  0  0  0  0  0
   34.5740   38.2550   26.4680 H   0  0  0  0  0  0  0  0  0  0  0  0
   35.2490   38.0090   19.4130 H   0  0  0  0  0  0  0  0  0  0  0  0
   35.7490   36.4840   14.8280 H   0  0  0  0  0  0  0  0  0  0  0  0
   34.3740   35.7480   16.7630 H   0  0  0  0  0  0  0  0  0  0  0  0
   34.7330   40.1120   20.7490 H   0  0  0  0  0  0  0  0  0  0  0  0
   35.0240   35.4410   24.6980 H   0  0  0  0  0  0  0  0  0  0  0  0
   33.2410   35.3490   24.3280 H   0  0  0  0  0  0  0  0  0  0  0  0
   34.3660   34.0370   23.7270 H   0  0  0  0  0  0  0  0  0  0  0  0
   34.0830   40.9630   25.2050 H   0  0  0  0  0  0  0  0  0  0  0  0
   38.2790   37.0970   14.9760 F   0  0  0  0  0  0  0  0  0  0  0  0
   34.4090   40.1100   27.6310 C   0  0  0  0  0  0  0  0  0  0  0  0
   32.8880   39.0050   26.5010 H   0  0  0  0  0  0  0  0  0  0  0  0
   35.5010   40.3640   27.5320 H   0  0  0  0  0  0  0  0  0  0  0  0
   33.8750   41.1010   27.5510 H   0  0  0  0  0  0  0  0  0  0  0  0
   34.2800   40.8070   30.2820 C   0  0  0  0  0  0  0  0  0  0  0  0
   34.1060   39.4320   29.2340 S   0  0  0  0  0  0  0  0  0  0  0  0
   32.7370   38.8720   29.3350 O   0  0  0  0  0  0  0  0  0  0  0  0
   35.1140   38.4010   29.5770 O   0  0  0  0  0  0  0  0  0  0  0  0
   35.2600   41.3300   30.1220 H   0  0  0  0  0  0  0  0  0  0  0  0
   33.4880   41.5830   30.1010 H   0  0  0  0  0  0  0  0  0  0  0  0
   34.2270   40.5400   31.3660 H   0  0  0  0  0  0  0  0  0  0  0  0
  1  3  2  0  0  0  0
  1  8  1  0  0  0  0
  1 23  1  0  0  0  0
  2 13  1  0  0  0  0
  2 19  2  0  0  0  0
  2 20  1  0  0  0  0
  3 14  1  0  0  0  0
  3 16  1  0  0  0  0
  4 18  2  0  0  0  0
  4 21  1  0  0  0  0
  4 22  1  0  0  0  0
  5 22  1  0  0  0  0
  5 24  1  0  0  0  0
  5 34  1  0  0  0  0
  5 35  1  0  0  0  0
  6  7  1  0  0  0  0
  6 11  1  0  0  0  0
  6 12  2  0  0  0  0
  7 13  2  0  0  0  0
  7 25  1  0  0  0  0
  8  9  2  0  0  0  0
  8 33  1  0  0  0  0
  9 10  1  0  0  0  0
  9 26  1  0  0  0  0
 10 14  2  0  0  0  0
 10 27  1  0  0  0  0
 11 20  1  0  0  0  0
 11 21  2  0  0  0  0
 12 18  1  0  0  0  0
 12 28  1  0  0  0  0
 13 17  1  0  0  0  0
 14 17  1  0  0  0  0
 15 20  1  0  0  0  0
 15 29  1  0  0  0  0
 15 30  1  0  0  0  0
 15 31  1  0  0  0  0
 22 32  1  0  0  0  0
 34 36  1  0  0  0  0
 34 37  1  0  0  0  0
 34 39  1  0  0  0  0
 38 39  1  0  0  0  0
 38 42  1  0  0  0  0
 38 43  1  0  0  0  0
 38 44  1  0  0  0  0
 39 40  2  0  0  0  0
 39 41  2  0  0  0  0
M  END
$$$$
