p38a_3flq
 OpenBabel02232411163D
Structure written by MMmdl.
 47 49  0  0  1  0  0  0  0  0999 V2000
   33.6510   39.1020   23.8260 C   0  0  0  0  0  0  0  0  0  0  0  0
   34.5670   37.9540   21.4810 C   0  0  0  0  0  0  0  0  0  0  0  0
   35.0620   37.3200   20.2860 C   0  0  0  0  0  0  0  0  0  0  0  0
   34.0050   37.1700   22.5300 C   0  0  0  0  0  0  0  0  0  0  0  0
   35.0020   35.9720   20.1960 C   0  0  0  0  0  0  0  0  0  0  0  0
   32.1900   39.3580   25.9490 C   0  0  1  0  0  0  0  0  0  0  0  0
   31.8120   37.8820   25.9470 C   0  0  0  0  0  0  0  0  0  0  0  0
   35.3410   39.8960   27.3550 C   0  0  0  0  0  0  0  0  0  0  0  0
   33.9190   35.7750   22.4030 N   0  0  0  0  0  0  0  0  0  0  0  0
   32.5390   39.8730   27.3660 C   0  0  0  0  0  0  0  0  0  0  0  0
   38.3030   37.1580   14.9350 F   0  0  0  0  0  0  0  0  0  0  0  0
   37.6140   36.6810   15.9690 C   0  0  0  0  0  0  0  0  0  0  0  0
   36.2600   36.3900   15.7860 C   0  0  0  0  0  0  0  0  0  0  0  0
   35.5090   35.9430   16.8790 C   0  0  0  0  0  0  0  0  0  0  0  0
   38.2770   36.5360   17.1950 C   0  0  0  0  0  0  0  0  0  0  0  0
   37.5060   36.1000   18.2690 C   0  0  0  0  0  0  0  0  0  0  0  0
   38.0550   35.9690   19.4690 F   0  0  0  0  0  0  0  0  0  0  0  0
   36.1390   35.7880   18.1170 C   0  0  0  0  0  0  0  0  0  0  0  0
   35.4410   35.1590   19.1570 O   0  0  0  0  0  0  0  0  0  0  0  0
   34.4070   35.0880   21.2380 C   0  0  0  0  0  0  0  0  0  0  0  0
   34.3190   33.8820   21.1660 O   0  0  0  0  0  0  0  0  0  0  0  0
   34.6090   39.3570   21.6900 C   0  0  0  0  0  0  0  0  0  0  0  0
   34.1770   39.9370   22.8230 N   0  0  0  0  0  0  0  0  0  0  0  0
   33.5450   37.7400   23.6950 N   0  0  0  0  0  0  0  0  0  0  0  0
   33.2820   34.9870   23.4960 C   0  0  0  0  0  0  0  0  0  0  0  0
   33.3310   39.7300   25.0320 N   0  0  0  0  0  0  0  0  0  0  0  0
   33.9650   39.2250   28.1770 S   0  0  0  0  0  0  0  0  0  0  0  0
   33.9560   39.6840   29.5930 O   0  0  0  0  0  0  0  0  0  0  0  0
   34.0050   37.7500   28.1340 O   0  0  0  0  0  0  0  0  0  0  0  0
   35.4730   37.9560   19.4990 H   0  0  0  0  0  0  0  0  0  0  0  0
   31.2900   39.9520   25.5970 H   0  0  0  0  0  0  0  0  0  0  0  0
   31.3740   37.5910   24.9640 H   0  0  0  0  0  0  0  0  0  0  0  0
   32.6970   37.2320   26.1490 H   0  0  0  0  0  0  0  0  0  0  0  0
   31.0390   37.6960   26.7290 H   0  0  0  0  0  0  0  0  0  0  0  0
   36.2730   39.8480   27.9740 H   0  0  0  0  0  0  0  0  0  0  0  0
   35.5460   39.3750   26.3830 H   0  0  0  0  0  0  0  0  0  0  0  0
   35.1850   40.9820   27.1020 H   0  0  0  0  0  0  0  0  0  0  0  0
   32.6290   40.9960   27.3200 H   0  0  0  0  0  0  0  0  0  0  0  0
   31.6350   39.6640   28.0060 H   0  0  0  0  0  0  0  0  0  0  0  0
   35.7780   36.5200   14.8140 H   0  0  0  0  0  0  0  0  0  0  0  0
   34.4410   35.7340   16.7570 H   0  0  0  0  0  0  0  0  0  0  0  0
   39.3350   36.7910   17.3110 H   0  0  0  0  0  0  0  0  0  0  0  0
   34.9960   40.0230   20.9020 H   0  0  0  0  0  0  0  0  0  0  0  0
   33.3400   33.8910   23.2690 H   0  0  0  0  0  0  0  0  0  0  0  0
   33.8020   35.1920   24.4710 H   0  0  0  0  0  0  0  0  0  0  0  0
   32.2040   35.2880   23.6000 H   0  0  0  0  0  0  0  0  0  0  0  0
   33.4770   40.7690   25.0300 H   0  0  0  0  0  0  0  0  0  0  0  0
  1 23  2  0  0  0  0
  1 24  1  0  0  0  0
  1 26  1  0  0  0  0
  2  3  1  0  0  0  0
  2  4  1  0  0  0  0
  2 22  2  0  0  0  0
  3  5  2  0  0  0  0
  3 30  1  0  0  0  0
  4  9  1  0  0  0  0
  4 24  2  0  0  0  0
  5 19  1  0  0  0  0
  5 20  1  0  0  0  0
  6  7  1  0  0  0  0
  6 10  1  0  0  0  0
  6 26  1  0  0  0  0
  6 31  1  6  0  0  0
  7 32  1  0  0  0  0
  7 33  1  0  0  0  0
  7 34  1  0  0  0  0
  8 27  1  0  0  0  0
  8 35  1  0  0  0  0
  8 36  1  0  0  0  0
  8 37  1  0  0  0  0
  9 20  1  0  0  0  0
  9 25  1  0  0  0  0
 10 27  1  0  0  0  0
 10 38  1  0  0  0  0
 10 39  1  0  0  0  0
 11 12  1  0  0  0  0
 12 13  2  0  0  0  0
 12 15  1  0  0  0  0
 13 14  1  0  0  0  0
 13 40  1  0  0  0  0
 14 18  2  0  0  0  0
 14 41  1  0  0  0  0
 15 16  2  0  0  0  0
 15 42  1  0  0  0  0
 16 17  1  0  0  0  0
 16 18  1  0  0  0  0
 18 19  1  0  0  0  0
 20 21  2  0  0  0  0
 22 23  1  0  0  0  0
 22 43  1  0  0  0  0
 25 44  1  0  0  0  0
 25 45  1  0  0  0  0
 25 46  1  0  0  0  0
 26 47  1  0  0  0  0
 27 28  2  0  0  0  0
 27 29  2  0  0  0  0
M  END
$$$$
