p38a_3flw
 OpenBabel02232411163D
Structure written by MMmdl.
 49 51  0  0  0  0  0  0  0  0999 V2000
   36.3050   35.9880   15.8940 C   0  0  0  0  0  0  0  0  0  0  0  0
   37.6040   36.4840   16.0690 C   0  0  0  0  0  0  0  0  0  0  0  0
   32.0370   38.6020   26.0750 C   0  0  0  0  0  0  0  0  0  0  0  0
   30.9400   38.9620   25.0580 C   0  0  0  0  0  0  0  0  0  0  0  0
   34.2560   39.1310   27.1910 C   0  0  0  0  0  0  0  0  0  0  0  0
   33.7650   35.1840   23.8820 C   0  0  0  0  0  0  0  0  0  0  0  0
   34.4330   35.0240   16.9590 F   0  0  0  0  0  0  0  0  0  0  0  0
   35.6540   35.5360   17.0380 C   0  0  0  0  0  0  0  0  0  0  0  0
   38.2260   36.9930   15.0080 F   0  0  0  0  0  0  0  0  0  0  0  0
   38.2610   36.5040   17.3030 C   0  0  0  0  0  0  0  0  0  0  0  0
   37.5730   36.0750   18.4430 C   0  0  0  0  0  0  0  0  0  0  0  0
   36.2680   35.5930   18.3060 C   0  0  0  0  0  0  0  0  0  0  0  0
   35.5410   35.0240   19.3630 O   0  0  0  0  0  0  0  0  0  0  0  0
   35.1500   35.9060   20.3680 C   0  0  0  0  0  0  0  0  0  0  0  0
   35.2350   37.2560   20.3610 C   0  0  0  0  0  0  0  0  0  0  0  0
   34.8100   37.9830   21.5260 C   0  0  0  0  0  0  0  0  0  0  0  0
   34.8240   39.4020   21.5920 C   0  0  0  0  0  0  0  0  0  0  0  0
   34.4950   40.0820   22.6990 N   0  0  0  0  0  0  0  0  0  0  0  0
   34.5570   35.1190   21.4830 C   0  0  0  0  0  0  0  0  0  0  0  0
   34.3190   33.9310   21.4560 O   0  0  0  0  0  0  0  0  0  0  0  0
   34.2530   35.8880   22.6630 N   0  0  0  0  0  0  0  0  0  0  0  0
   34.3690   37.2860   22.6890 C   0  0  0  0  0  0  0  0  0  0  0  0
   34.0380   37.9530   23.8480 N   0  0  0  0  0  0  0  0  0  0  0  0
   34.1150   39.3240   23.8270 C   0  0  0  0  0  0  0  0  0  0  0  0
   33.7570   40.0830   24.9170 N   0  0  0  0  0  0  0  0  0  0  0  0
   33.1720   39.6290   26.2170 C   0  0  0  0  0  0  0  0  0  0  0  0
   35.3650   40.1580   27.4630 C   0  0  0  0  0  0  0  0  0  0  0  0
   34.8590   41.4750   27.7520 O   0  0  0  0  0  0  0  0  0  0  0  0
   30.7950   40.3760   24.8410 O   0  0  0  0  0  0  0  0  0  0  0  0
   35.8220   35.9810   14.9140 H   0  0  0  0  0  0  0  0  0  0  0  0
   31.5740   38.4840   27.0880 H   0  0  0  0  0  0  0  0  0  0  0  0
   32.4640   37.6010   25.7970 H   0  0  0  0  0  0  0  0  0  0  0  0
   31.1530   38.4870   24.0730 H   0  0  0  0  0  0  0  0  0  0  0  0
   29.9380   38.6720   25.4450 H   0  0  0  0  0  0  0  0  0  0  0  0
   33.7530   38.8620   28.1550 H   0  0  0  0  0  0  0  0  0  0  0  0
   34.7260   38.1950   26.7940 H   0  0  0  0  0  0  0  0  0  0  0  0
   34.3740   35.4950   24.7750 H   0  0  0  0  0  0  0  0  0  0  0  0
   32.6930   35.4540   24.0780 H   0  0  0  0  0  0  0  0  0  0  0  0
   33.8520   34.0750   23.7520 H   0  0  0  0  0  0  0  0  0  0  0  0
   39.2850   36.8810   17.3850 H   0  0  0  0  0  0  0  0  0  0  0  0
   38.0520   36.1410   19.4220 H   0  0  0  0  0  0  0  0  0  0  0  0
   35.6290   37.8250   19.5150 H   0  0  0  0  0  0  0  0  0  0  0  0
   35.1030   39.9850   20.7000 H   0  0  0  0  0  0  0  0  0  0  0  0
   33.9940   41.0940   24.9170 H   0  0  0  0  0  0  0  0  0  0  0  0
   32.7180   40.5770   26.6470 H   0  0  0  0  0  0  0  0  0  0  0  0
   35.9180   39.8920   28.3960 H   0  0  0  0  0  0  0  0  0  0  0  0
   36.0440   40.2400   26.5890 H   0  0  0  0  0  0  0  0  0  0  0  0
   34.3920   41.8120   26.9310 H   0  0  0  0  0  0  0  0  0  0  0  0
   31.6700   40.7350   24.6070 H   0  0  0  0  0  0  0  0  0  0  0  0
  1  2  2  0  0  0  0
  1  8  1  0  0  0  0
  1 30  1  0  0  0  0
  2  9  1  0  0  0  0
  2 10  1  0  0  0  0
  3  4  1  0  0  0  0
  3 26  1  0  0  0  0
  3 31  1  0  0  0  0
  3 32  1  0  0  0  0
  4 29  1  0  0  0  0
  4 33  1  0  0  0  0
  4 34  1  0  0  0  0
  5 26  1  0  0  0  0
  5 27  1  0  0  0  0
  5 35  1  0  0  0  0
  5 36  1  0  0  0  0
  6 21  1  0  0  0  0
  6 37  1  0  0  0  0
  6 38  1  0  0  0  0
  6 39  1  0  0  0  0
  7  8  1  0  0  0  0
  8 12  2  0  0  0  0
 10 11  2  0  0  0  0
 10 40  1  0  0  0  0
 11 12  1  0  0  0  0
 11 41  1  0  0  0  0
 12 13  1  0  0  0  0
 13 14  1  0  0  0  0
 14 15  2  0  0  0  0
 14 19  1  0  0  0  0
 15 16  1  0  0  0  0
 15 42  1  0  0  0  0
 16 17  2  0  0  0  0
 16 22  1  0  0  0  0
 17 18  1  0  0  0  0
 17 43  1  0  0  0  0
 18 24  2  0  0  0  0
 19 20  2  0  0  0  0
 19 21  1  0  0  0  0
 21 22  1  0  0  0  0
 22 23  2  0  0  0  0
 23 24  1  0  0  0  0
 24 25  1  0  0  0  0
 25 26  1  0  0  0  0
 25 44  1  0  0  0  0
 26 45  1  0  0  0  0
 27 28  1  0  0  0  0
 27 46  1  0  0  0  0
 27 47  1  0  0  0  0
 28 48  1  0  0  0  0
 29 49  1  0  0  0  0
M  END
$$$$
