p38a_3flw
 OpenBabel02232411163D
Structure written by MMmdl.
 49 51  0  0  0  0  0  0  0  0999 V2000
   36.3290   36.0060   15.8790 C   0  0  0  0  0  0  0  0  0  0  0  0
   37.6250   36.5120   16.0430 C   0  0  0  0  0  0  0  0  0  0  0  0
   31.9440   38.1210   26.1490 C   0  0  0  0  0  0  0  0  0  0  0  0
   31.1880   37.8930   27.4600 C   0  0  0  0  0  0  0  0  0  0  0  0
   34.1460   39.1060   27.0090 C   0  0  0  0  0  0  0  0  0  0  0  0
   33.5550   35.0250   23.7340 C   0  0  0  0  0  0  0  0  0  0  0  0
   34.4770   35.0230   16.9610 F   0  0  0  0  0  0  0  0  0  0  0  0
   35.6930   35.5490   17.0280 C   0  0  0  0  0  0  0  0  0  0  0  0
   38.2360   37.0220   14.9750 F   0  0  0  0  0  0  0  0  0  0  0  0
   38.2910   36.5410   17.2710 C   0  0  0  0  0  0  0  0  0  0  0  0
   37.6170   36.1080   18.4180 C   0  0  0  0  0  0  0  0  0  0  0  0
   36.3170   35.6110   18.2920 C   0  0  0  0  0  0  0  0  0  0  0  0
   35.6160   35.0130   19.3470 O   0  0  0  0  0  0  0  0  0  0  0  0
   35.1540   35.8720   20.3410 C   0  0  0  0  0  0  0  0  0  0  0  0
   35.2190   37.2230   20.3750 C   0  0  0  0  0  0  0  0  0  0  0  0
   34.6960   37.9100   21.5250 C   0  0  0  0  0  0  0  0  0  0  0  0
   34.6870   39.3270   21.6370 C   0  0  0  0  0  0  0  0  0  0  0  0
   34.2380   39.9680   22.7240 N   0  0  0  0  0  0  0  0  0  0  0  0
   34.5140   35.0440   21.4000 C   0  0  0  0  0  0  0  0  0  0  0  0
   34.3210   33.8490   21.3330 O   0  0  0  0  0  0  0  0  0  0  0  0
   34.1050   35.7740   22.5690 N   0  0  0  0  0  0  0  0  0  0  0  0
   34.1750   37.1760   22.6300 C   0  0  0  0  0  0  0  0  0  0  0  0
   33.7210   37.8020   23.7680 N   0  0  0  0  0  0  0  0  0  0  0  0
   33.7410   39.1790   23.7860 C   0  0  0  0  0  0  0  0  0  0  0  0
   33.1700   39.8860   24.8280 N   0  0  0  0  0  0  0  0  0  0  0  0
   32.8600   39.3580   26.1980 C   0  0  0  0  0  0  0  0  0  0  0  0
   34.8230   40.4160   27.4260 C   0  0  0  0  0  0  0  0  0  0  0  0
   35.7850   40.1850   28.4690 O   0  0  0  0  0  0  0  0  0  0  0  0
   32.1310   37.2960   28.3860 O   0  0  0  0  0  0  0  0  0  0  0  0
   35.8390   35.9940   14.9020 H   0  0  0  0  0  0  0  0  0  0  0  0
   32.5460   37.2050   25.9190 H   0  0  0  0  0  0  0  0  0  0  0  0
   31.1880   38.2570   25.3330 H   0  0  0  0  0  0  0  0  0  0  0  0
   30.8130   38.8420   27.9050 H   0  0  0  0  0  0  0  0  0  0  0  0
   30.3530   37.1680   27.3050 H   0  0  0  0  0  0  0  0  0  0  0  0
   33.8570   38.5350   27.9340 H   0  0  0  0  0  0  0  0  0  0  0  0
   34.8500   38.4700   26.4260 H   0  0  0  0  0  0  0  0  0  0  0  0
   32.4850   35.3180   23.9090 H   0  0  0  0  0  0  0  0  0  0  0  0
   33.6110   33.9210   23.5470 H   0  0  0  0  0  0  0  0  0  0  0  0
   34.1480   35.2700   24.6570 H   0  0  0  0  0  0  0  0  0  0  0  0
   39.3130   36.9250   17.3450 H   0  0  0  0  0  0  0  0  0  0  0  0
   38.1030   36.1830   19.3930 H   0  0  0  0  0  0  0  0  0  0  0  0
   35.6580   37.8220   19.5730 H   0  0  0  0  0  0  0  0  0  0  0  0
   35.0580   39.9450   20.8040 H   0  0  0  0  0  0  0  0  0  0  0  0
   33.3700   40.9110   24.8570 H   0  0  0  0  0  0  0  0  0  0  0  0
   32.2840   40.2080   26.6760 H   0  0  0  0  0  0  0  0  0  0  0  0
   35.3330   40.9050   26.5650 H   0  0  0  0  0  0  0  0  0  0  0  0
   34.0980   41.1200   27.9020 H   0  0  0  0  0  0  0  0  0  0  0  0
   36.4680   39.5490   28.1490 H   0  0  0  0  0  0  0  0  0  0  0  0
   31.6710   37.1290   29.2430 H   0  0  0  0  0  0  0  0  0  0  0  0
  1  2  2  0  0  0  0
  1  8  1  0  0  0  0
  1 30  1  0  0  0  0
  2  9  1  0  0  0  0
  2 10  1  0  0  0  0
  3  4  1  0  0  0  0
  3 26  1  0  0  0  0
  3 31  1  0  0  0  0
  3 32  1  0  0  0  0
  4 29  1  0  0  0  0
  4 33  1  0  0  0  0
  4 34  1  0  0  0  0
  5 26  1  0  0  0  0
  5 27  1  0  0  0  0
  5 35  1  0  0  0  0
  5 36  1  0  0  0  0
  6 21  1  0  0  0  0
  6 37  1  0  0  0  0
  6 38  1  0  0  0  0
  6 39  1  0  0  0  0
  7  8  1  0  0  0  0
  8 12  2  0  0  0  0
 10 11  2  0  0  0  0
 10 40  1  0  0  0  0
 11 12  1  0  0  0  0
 11 41  1  0  0  0  0
 12 13  1  0  0  0  0
 13 14  1  0  0  0  0
 14 15  2  0  0  0  0
 14 19  1  0  0  0  0
 15 16  1  0  0  0  0
 15 42  1  0  0  0  0
 16 17  2  0  0  0  0
 16 22  1  0  0  0  0
 17 18  1  0  0  0  0
 17 43  1  0  0  0  0
 18 24  2  0  0  0  0
 19 20  2  0  0  0  0
 19 21  1  0  0  0  0
 21 22  1  0  0  0  0
 22 23  2  0  0  0  0
 23 24  1  0  0  0  0
 24 25  1  0  0  0  0
 25 26  1  0  0  0  0
 25 44  1  0  0  0  0
 26 45  1  0  0  0  0
 27 28  1  0  0  0  0
 27 46  1  0  0  0  0
 27 47  1  0  0  0  0
 28 48  1  0  0  0  0
 29 49  1  0  0  0  0
M  END
$$$$
