p38a_2p
 OpenBabel02232411163D
Structure written by MMmdl.
 58 61  0  0  0  0  0  0  0  0999 V2000
   38.2170   36.4950   17.2550 C   0  0  0  0  0  0  0  0  0  0  0  0
   34.3900   35.2370   21.3590 C   0  0  0  0  0  0  0  0  0  0  0  0
   37.4320   36.0750   18.3260 C   0  0  0  0  0  0  0  0  0  0  0  0
   33.8340   39.4040   23.7580 C   0  0  0  0  0  0  0  0  0  0  0  0
   34.5700   38.1070   21.4340 C   0  0  0  0  0  0  0  0  0  0  0  0
   35.0060   37.4070   20.2580 C   0  0  0  0  0  0  0  0  0  0  0  0
   37.5620   36.6490   16.0260 C   0  0  0  0  0  0  0  0  0  0  0  0
   36.2030   36.3810   15.8390 C   0  0  0  0  0  0  0  0  0  0  0  0
   35.4390   35.9520   16.9300 C   0  0  0  0  0  0  0  0  0  0  0  0
   34.1000   37.3890   22.5710 C   0  0  0  0  0  0  0  0  0  0  0  0
   34.5980   39.5240   21.5380 C   0  0  0  0  0  0  0  0  0  0  0  0
   34.9430   36.0560   20.2460 C   0  0  0  0  0  0  0  0  0  0  0  0
   36.0590   35.7890   18.1720 C   0  0  0  0  0  0  0  0  0  0  0  0
   37.9760   35.9360   19.5280 F   0  0  0  0  0  0  0  0  0  0  0  0
   35.3380   35.1990   19.2200 O   0  0  0  0  0  0  0  0  0  0  0  0
   34.2600   40.1800   22.6550 N   0  0  0  0  0  0  0  0  0  0  0  0
   34.2370   34.0360   21.3370 O   0  0  0  0  0  0  0  0  0  0  0  0
   33.9980   35.9870   22.5260 N   0  0  0  0  0  0  0  0  0  0  0  0
   33.7270   38.0310   23.7290 N   0  0  0  0  0  0  0  0  0  0  0  0
   33.4910   40.1200   24.8790 N   0  0  0  0  0  0  0  0  0  0  0  0
   39.2790   36.7290   17.3740 H   0  0  0  0  0  0  0  0  0  0  0  0
   35.3820   37.9940   19.4180 H   0  0  0  0  0  0  0  0  0  0  0  0
   35.7290   36.5150   14.8630 H   0  0  0  0  0  0  0  0  0  0  0  0
   34.3680   35.7630   16.8040 H   0  0  0  0  0  0  0  0  0  0  0  0
   34.9030   40.1270   20.6690 H   0  0  0  0  0  0  0  0  0  0  0  0
   33.6960   41.1380   24.8990 H   0  0  0  0  0  0  0  0  0  0  0  0
   38.2650   37.1080   14.9930 F   0  0  0  0  0  0  0  0  0  0  0  0
   33.5530   38.2650   28.2590 C   0  0  0  0  0  0  0  0  0  0  0  0
   34.0850   38.7090   26.8880 C   0  0  0  0  0  0  0  0  0  0  0  0
   33.0300   39.5930   26.1950 C   0  0  0  0  0  0  0  0  0  0  0  0
   31.6930   38.8330   26.0940 C   0  0  0  0  0  0  0  0  0  0  0  0
   31.2540   38.4190   27.5040 C   0  0  0  0  0  0  0  0  0  0  0  0
   32.2620   37.6230   28.1670 O   0  0  0  0  0  0  0  0  0  0  0  0
   33.4740   39.1330   28.9530 H   0  0  0  0  0  0  0  0  0  0  0  0
   34.1880   37.4550   28.6870 H   0  0  0  0  0  0  0  0  0  0  0  0
   34.3040   37.8120   26.2610 H   0  0  0  0  0  0  0  0  0  0  0  0
   35.0340   39.2790   27.0270 H   0  0  0  0  0  0  0  0  0  0  0  0
   32.8730   40.5230   26.8210 H   0  0  0  0  0  0  0  0  0  0  0  0
   30.9170   39.4820   25.6270 H   0  0  0  0  0  0  0  0  0  0  0  0
   31.8270   37.9220   25.4610 H   0  0  0  0  0  0  0  0  0  0  0  0
   31.0350   39.3060   28.1370 H   0  0  0  0  0  0  0  0  0  0  0  0
   30.3910   37.7150   27.4700 H   0  0  0  0  0  0  0  0  0  0  0  0
   33.4720   35.2530   23.7230 C   0  0  0  0  0  0  0  0  0  0  0  0
   32.6260   35.8560   24.1550 H   0  0  0  0  0  0  0  0  0  0  0  0
   33.0810   34.2530   23.3830 H   0  0  0  0  0  0  0  0  0  0  0  0
   34.5640   35.0560   24.7940 C   0  0  0  0  0  0  0  0  0  0  0  0
   35.2750   34.2540   24.4820 H   0  0  0  0  0  0  0  0  0  0  0  0
   35.1580   36.0050   24.8950 H   0  0  0  0  0  0  0  0  0  0  0  0
   33.9630   34.7480   26.1700 C   0  0  0  0  0  0  0  0  0  0  0  0
   33.2480   35.5780   26.4410 H   0  0  0  0  0  0  0  0  0  0  0  0
   34.7890   34.8240   26.9350 H   0  0  0  0  0  0  0  0  0  0  0  0
   33.1800   33.1830   26.3200 S   0  0  0  0  0  0  0  0  0  0  0  0
   32.4180   32.8400   25.0980 O   0  0  0  0  0  0  0  0  0  0  0  0
   32.2940   33.1430   27.5100 O   0  0  0  0  0  0  0  0  0  0  0  0
   34.5120   32.0750   26.5270 C   0  0  0  0  0  0  0  0  0  0  0  0
   35.0270   32.2550   27.5090 H   0  0  0  0  0  0  0  0  0  0  0  0
   34.1710   31.0060   26.5300 H   0  0  0  0  0  0  0  0  0  0  0  0
   35.2800   32.1760   25.7220 H   0  0  0  0  0  0  0  0  0  0  0  0
  1  3  2  0  0  0  0
  1  7  1  0  0  0  0
  1 21  1  0  0  0  0
  2 12  1  0  0  0  0
  2 17  2  0  0  0  0
  2 18  1  0  0  0  0
  3 13  1  0  0  0  0
  3 14  1  0  0  0  0
  4 16  2  0  0  0  0
  4 19  1  0  0  0  0
  4 20  1  0  0  0  0
  5  6  1  0  0  0  0
  5 10  1  0  0  0  0
  5 11  2  0  0  0  0
  6 12  2  0  0  0  0
  6 22  1  0  0  0  0
  7  8  2  0  0  0  0
  7 27  1  0  0  0  0
  8  9  1  0  0  0  0
  8 23  1  0  0  0  0
  9 13  2  0  0  0  0
  9 24  1  0  0  0  0
 10 18  1  0  0  0  0
 10 19  2  0  0  0  0
 11 16  1  0  0  0  0
 11 25  1  0  0  0  0
 12 15  1  0  0  0  0
 13 15  1  0  0  0  0
 18 43  1  0  0  0  0
 20 26  1  0  0  0  0
 20 30  1  0  0  0  0
 28 29  1  0  0  0  0
 28 33  1  0  0  0  0
 28 34  1  0  0  0  0
 28 35  1  0  0  0  0
 29 30  1  0  0  0  0
 29 36  1  0  0  0  0
 29 37  1  0  0  0  0
 30 31  1  0  0  0  0
 30 38  1  0  0  0  0
 31 32  1  0  0  0  0
 31 39  1  0  0  0  0
 31 40  1  0  0  0  0
 32 33  1  0  0  0  0
 32 41  1  0  0  0  0
 32 42  1  0  0  0  0
 43 44  1  0  0  0  0
 43 45  1  0  0  0  0
 43 46  1  0  0  0  0
 46 47  1  0  0  0  0
 46 48  1  0  0  0  0
 46 49  1  0  0  0  0
 49 50  1  0  0  0  0
 49 51  1  0  0  0  0
 49 52  1  0  0  0  0
 52 53  2  0  0  0  0
 52 54  2  0  0  0  0
 52 55  1  0  0  0  0
 55 56  1  0  0  0  0
 55 57  1  0  0  0  0
 55 58  1  0  0  0  0
M  END
$$$$
