29
 OpenBabel02232411163D
Structure written by MMmdl.
 41 43  0  0  0  0  0  0  0  0999 V2000
    3.2460  -47.9970    7.0820 O   0  0  0  0  0  0  0  0  0  0  0  0
    2.8810  -49.0420    6.5280 C   0  0  0  0  0  0  0  0  0  0  0  0
    3.6210  -49.9280    6.0530 O   0  5  0  0  0  0  0  0  0  0  0  0
    1.3740  -49.3460    6.4170 C   0  0  0  0  0  0  0  0  0  0  0  0
   -0.4600  -50.7170    6.5140 C   0  0  0  0  0  0  0  0  0  0  0  0
   -1.3630  -51.7800    6.6930 C   0  0  0  0  0  0  0  0  0  0  0  0
   -2.6950  -51.5450    6.3900 C   0  0  0  0  0  0  0  0  0  0  0  0
   -3.1290  -50.2860    5.9100 C   0  0  0  0  0  0  0  0  0  0  0  0
   -2.2430  -49.2320    5.7330 C   0  0  0  0  0  0  0  0  0  0  0  0
   -0.8860  -49.4230    6.0440 C   0  0  0  0  0  0  0  0  0  0  0  0
    0.2880  -48.5770    6.0100 C   0  0  0  0  0  0  0  0  0  0  0  0
    0.2460  -47.1500    5.5960 C   0  0  0  0  0  0  0  0  0  0  0  0
    0.0550  -46.1760    6.7740 C   0  0  0  0  0  0  0  0  0  0  0  0
   -1.2770  -46.3300    7.5090 C   0  0  0  0  0  0  0  0  0  0  0  0
   -2.2840  -45.9230    6.5060 O   0  0  0  0  0  0  0  0  0  0  0  0
   -3.5140  -45.4690    6.8320 C   0  0  0  0  0  0  0  0  0  0  0  0
   -4.3580  -45.8290    7.9050 C   0  0  0  0  0  0  0  0  0  0  0  0
   -5.5910  -45.1400    8.0360 C   0  0  0  0  0  0  0  0  0  0  0  0
   -6.0150  -44.2160    7.0970 C   0  0  0  0  0  0  0  0  0  0  0  0
   -5.2070  -43.9360    5.9760 C   0  0  0  0  0  0  0  0  0  0  0  0
   -3.9760  -44.5440    5.8470 C   0  0  0  0  0  0  0  0  0  0  0  0
   -1.0350  -52.7540    7.0590 H   0  0  0  0  0  0  0  0  0  0  0  0
   -3.4320  -52.3390    6.5190 H   0  0  0  0  0  0  0  0  0  0  0  0
   -4.1850  -50.1500    5.6760 H   0  0  0  0  0  0  0  0  0  0  0  0
   -2.6020  -48.2700    5.3630 H   0  0  0  0  0  0  0  0  0  0  0  0
   -0.6150  -47.0120    4.8910 H   0  0  0  0  0  0  0  0  0  0  0  0
    1.1870  -46.8660    5.0640 H   0  0  0  0  0  0  0  0  0  0  0  0
    0.1260  -45.1320    6.3880 H   0  0  0  0  0  0  0  0  0  0  0  0
    0.8660  -46.3450    7.5250 H   0  0  0  0  0  0  0  0  0  0  0  0
   -1.3580  -45.6300    8.3650 H   0  0  0  0  0  0  0  0  0  0  0  0
   -1.4870  -47.3880    7.7580 H   0  0  0  0  0  0  0  0  0  0  0  0
   -3.3460  -44.3310    4.9860 H   0  0  0  0  0  0  0  0  0  0  0  0
    0.9240  -50.6440    6.7350 N   0  0  0  0  0  0  0  0  0  0  0  0
    1.4820  -51.4310    7.0450 H   0  0  0  0  0  0  0  0  0  0  0  0
   -5.5620  -43.2310    5.2220 H   0  0  0  0  0  0  0  0  0  0  0  0
   -6.9770  -43.7180    7.2050 H   0  0  0  0  0  0  0  0  0  0  0  0
   -6.2480  -45.3400    8.8890 H   0  0  0  0  0  0  0  0  0  0  0  0
   -3.2490  -46.7190    9.8390 F   0  0  0  0  0  0  0  0  0  0  0  0
   -4.1230  -46.9610    8.8440 C   0  0  0  0  0  0  0  0  0  0  0  0
   -5.2100  -47.3920    9.5200 F   0  0  0  0  0  0  0  0  0  0  0  0
   -3.6690  -48.0940    8.2840 F   0  0  0  0  0  0  0  0  0  0  0  0
  1  2  2  0  0  0  0
  2  3  1  0  0  0  0
  2  4  1  0  0  0  0
  4 11  2  0  0  0  0
  4 33  1  0  0  0  0
  5  6  2  0  0  0  0
  5 10  1  0  0  0  0
  5 33  1  0  0  0  0
  6  7  1  0  0  0  0
  6 22  1  0  0  0  0
  7  8  2  0  0  0  0
  7 23  1  0  0  0  0
  8  9  1  0  0  0  0
  8 24  1  0  0  0  0
  9 10  2  0  0  0  0
  9 25  1  0  0  0  0
 10 11  1  0  0  0  0
 11 12  1  0  0  0  0
 12 26  1  0  0  0  0
 12 27  1  0  0  0  0
 12 13  1  0  0  0  0
 13 14  1  0  0  0  0
 13 28  1  0  0  0  0
 13 29  1  0  0  0  0
 14 15  1  0  0  0  0
 14 30  1  0  0  0  0
 14 31  1  0  0  0  0
 15 16  1  0  0  0  0
 16 17  2  0  0  0  0
 16 21  1  0  0  0  0
 17 18  1  0  0  0  0
 17 39  1  0  0  0  0
 18 19  2  0  0  0  0
 18 37  1  0  0  0  0
 19 20  1  0  0  0  0
 19 36  1  0  0  0  0
 20 21  2  0  0  0  0
 20 35  1  0  0  0  0
 21 32  1  0  0  0  0
 33 34  1  0  0  0  0
 38 39  1  0  0  0  0
 39 40  1  0  0  0  0
 39 41  1  0  0  0  0
M  CHG  1   3  -1
M  END
$$$$
