CAT-13h
                    3D
 Schrodinger Suite 2022-3.
 46 49  0  0  1  0  0  0  0  0999 V2000
   11.7900   -2.4170    1.3470 C   0  0  0  0  0  0  0  0  0  0  0  0
   13.0590   -2.8100    0.7050 N   0  0  0  0  0  0  0  0  0  0  0  0
   14.2620   -2.8090    1.4240 C   0  0  0  0  0  0  0  0  0  0  0  0
   14.3870   -2.7220    2.7810 N   0  0  0  0  0  0  0  0  0  0  0  0
   15.3200   -2.9980    0.5570 N   0  3  0  0  0  0  0  0  0  0  0  0
   14.8610   -3.1770   -0.8710 C   0  0  1  0  0  0  0  0  0  0  0  0
   15.5130   -2.0590   -1.6610 C   0  0  0  0  0  0  0  0  0  0  0  0
   16.5520   -2.3140   -2.5630 C   0  0  0  0  0  0  0  0  0  0  0  0
   17.1170   -1.2560   -3.2850 C   0  0  0  0  0  0  0  0  0  0  0  0
   16.6850    0.0550   -3.0780 C   0  0  0  0  0  0  0  0  0  0  0  0
   15.6920    0.3250   -2.1210 C   0  0  0  0  0  0  0  0  0  0  0  0
   15.3050    1.7180   -1.7960 C   0  0  0  0  0  0  0  0  0  0  0  0
   14.7500    2.5700   -2.7590 C   0  0  0  0  0  0  0  0  0  0  0  0
   14.3870    3.8770   -2.4120 C   0  0  0  0  0  0  0  0  0  0  0  0
   14.5600    4.3420   -1.1050 C   0  0  0  0  0  0  0  0  0  0  0  0
   15.1070    3.4760   -0.1550 C   0  0  0  0  0  0  0  0  0  0  0  0
   15.2710    3.9900    1.4820 Cl  0  0  0  0  0  0  0  0  0  0  0  0
   15.4950    2.1770   -0.4820 C   0  0  0  0  0  0  0  0  0  0  0  0
   15.0940   -0.7370   -1.4320 C   0  0  0  0  0  0  0  0  0  0  0  0
   15.0550   -4.6070   -1.4050 C   0  0  0  0  0  0  0  0  0  0  0  0
   14.4990   -4.7930   -2.7980 C   0  0  0  0  0  0  0  0  0  0  0  0
   16.2880   -5.3910   -0.9630 C   0  0  0  0  0  0  0  0  0  0  0  0
   14.9250   -5.7770   -0.4270 C   0  0  0  0  0  0  0  0  0  0  0  0
   13.3180   -2.9410   -0.7380 C   0  0  0  0  0  0  0  0  0  0  0  0
   12.4430   -2.8800   -1.5420 O   0  0  0  0  0  0  0  0  0  0  0  0
   11.5900   -3.0810    2.2320 H   0  0  0  0  0  0  0  0  0  0  0  0
   11.8770   -1.3530    1.6930 H   0  0  0  0  0  0  0  0  0  0  0  0
   10.9470   -2.5160    0.6150 H   0  0  0  0  0  0  0  0  0  0  0  0
   13.6680   -2.2190    3.3580 H   0  0  0  0  0  0  0  0  0  0  0  0
   16.2860   -3.2180    0.9040 H   0  0  0  0  0  0  0  0  0  0  0  0
   16.9280   -3.3290   -2.6980 H   0  0  0  0  0  0  0  0  0  0  0  0
   17.9120   -1.4630   -4.0100 H   0  0  0  0  0  0  0  0  0  0  0  0
   17.1300    0.8740   -3.6470 H   0  0  0  0  0  0  0  0  0  0  0  0
   14.5910    2.2070   -3.7780 H   0  0  0  0  0  0  0  0  0  0  0  0
   13.9510    4.5350   -3.1720 H   0  0  0  0  0  0  0  0  0  0  0  0
   14.2590    5.3570   -0.8350 H   0  0  0  0  0  0  0  0  0  0  0  0
   15.9280    1.5090    0.2600 H   0  0  0  0  0  0  0  0  0  0  0  0
   14.3120   -0.5290   -0.7010 H   0  0  0  0  0  0  0  0  0  0  0  0
   13.4070   -5.0130   -2.7520 H   0  0  0  0  0  0  0  0  0  0  0  0
   14.6540   -3.8940   -3.4380 H   0  0  0  0  0  0  0  0  0  0  0  0
   15.0010   -5.6550   -3.3020 H   0  0  0  0  0  0  0  0  0  0  0  0
   16.7800   -6.0510   -1.6900 H   0  0  0  0  0  0  0  0  0  0  0  0
   17.0100   -4.9120   -0.2890 H   0  0  0  0  0  0  0  0  0  0  0  0
   14.6830   -5.5820    0.6240 H   0  0  0  0  0  0  0  0  0  0  0  0
   14.4570   -6.7050   -0.7880 H   0  0  0  0  0  0  0  0  0  0  0  0
   15.3610   -2.6190    3.1800 H   0  0  0  0  0  0  0  0  0  0  0  0
  1  2  1  0  0  0  0
  1 26  1  0  0  0  0
  1 27  1  0  0  0  0
  1 28  1  0  0  0  0
  2  3  1  0  0  0  0
  2 24  1  0  0  0  0
  3  4  1  0  0  0  0
  3  5  2  0  0  0  0
  4 29  1  0  0  0  0
  4 46  1  0  0  0  0
  5  6  1  0  0  0  0
  5 30  1  0  0  0  0
  6  7  1  0  0  0  0
  6 20  1  0  0  0  0
  6 24  1  0  0  0  0
  7  8  2  0  0  0  0
  7 19  1  0  0  0  0
  8  9  1  0  0  0  0
  8 31  1  0  0  0  0
  9 10  2  0  0  0  0
  9 32  1  0  0  0  0
 10 11  1  0  0  0  0
 10 33  1  0  0  0  0
 11 12  1  0  0  0  0
 11 19  2  0  0  0  0
 12 13  2  0  0  0  0
 12 18  1  0  0  0  0
 13 14  1  0  0  0  0
 13 34  1  0  0  0  0
 14 15  2  0  0  0  0
 14 35  1  0  0  0  0
 15 16  1  0  0  0  0
 15 36  1  0  0  0  0
 16 17  1  0  0  0  0
 16 18  2  0  0  0  0
 18 37  1  0  0  0  0
 19 38  1  0  0  0  0
 20 21  1  0  0  0  0
 20 22  1  0  0  0  0
 20 23  1  0  0  0  0
 21 39  1  0  0  0  0
 21 40  1  0  0  0  0
 21 41  1  0  0  0  0
 22 23  1  0  0  0  0
 22 42  1  0  0  0  0
 22 43  1  0  0  0  0
 23 44  1  0  0  0  0
 23 45  1  0  0  0  0
 24 25  2  0  0  0  0
M  CHG  1   5   1
M  END
$$$$
