42
 OpenBabel02232411163D
Structure written by MMmdl.
 44 47  0  0  0  0  0  0  0  0999 V2000
    3.8980  -49.9840    6.2320 O   0  0  0  0  0  0  0  0  0  0  0  0
    3.0940  -49.1350    6.6670 C   0  0  0  0  0  0  0  0  0  0  0  0
    3.3660  -48.0620    7.2160 O   0  5  0  0  0  0  0  0  0  0  0  0
    1.6100  -49.5240    6.4870 C   0  0  0  0  0  0  0  0  0  0  0  0
   -0.1720  -50.9560    6.5950 C   0  0  0  0  0  0  0  0  0  0  0  0
   -1.0600  -52.0090    6.8730 C   0  0  0  0  0  0  0  0  0  0  0  0
   -2.3690  -51.8760    6.4330 C   0  0  0  0  0  0  0  0  0  0  0  0
   -2.7800  -50.7420    5.6950 C   0  0  0  0  0  0  0  0  0  0  0  0
   -1.8970  -49.7160    5.3890 C   0  0  0  0  0  0  0  0  0  0  0  0
   -0.5830  -49.7700    5.8840 C   0  0  0  0  0  0  0  0  0  0  0  0
    0.5460  -48.8650    5.8770 C   0  0  0  0  0  0  0  0  0  0  0  0
    0.4970  -47.4650    5.3750 C   0  0  0  0  0  0  0  0  0  0  0  0
   -0.2060  -46.5010    6.3570 C   0  0  0  0  0  0  0  0  0  0  0  0
   -1.7100  -46.7620    6.3750 C   0  0  0  0  0  0  0  0  0  0  0  0
   -2.3060  -45.7950    7.3150 O   0  0  0  0  0  0  0  0  0  0  0  0
   -3.5350  -45.2940    6.9600 C   0  0  0  0  0  0  0  0  0  0  0  0
   -6.0460  -44.1230    6.5150 C   0  0  0  0  0  0  0  0  0  0  0  0
   -5.0560  -44.0310    5.5690 C   0  0  0  0  0  0  0  0  0  0  0  0
   -3.7830  -44.6240    5.7800 C   0  0  0  0  0  0  0  0  0  0  0  0
   -0.7430  -52.8970    7.4210 H   0  0  0  0  0  0  0  0  0  0  0  0
   -3.1000  -52.6550    6.6520 H   0  0  0  0  0  0  0  0  0  0  0  0
   -3.8170  -50.6790    5.3630 H   0  0  0  0  0  0  0  0  0  0  0  0
   -2.2330  -48.8910    4.7600 H   0  0  0  0  0  0  0  0  0  0  0  0
   -0.0680  -47.4430    4.4120 H   0  0  0  0  0  0  0  0  0  0  0  0
    1.5280  -47.0750    5.1900 H   0  0  0  0  0  0  0  0  0  0  0  0
    0.2020  -46.6300    7.3850 H   0  0  0  0  0  0  0  0  0  0  0  0
   -0.0230  -45.4490    6.0430 H   0  0  0  0  0  0  0  0  0  0  0  0
   -2.1740  -46.6470    5.3740 H   0  0  0  0  0  0  0  0  0  0  0  0
   -1.9670  -47.7340    6.8570 H   0  0  0  0  0  0  0  0  0  0  0  0
   -3.0400  -44.5240    4.9990 H   0  0  0  0  0  0  0  0  0  0  0  0
   -5.8140  -44.8350    7.7350 C   0  0  0  0  0  0  0  0  0  0  0  0
   -4.5600  -45.4590    7.9610 C   0  0  0  0  0  0  0  0  0  0  0  0
   -4.3660  -46.2640    9.1220 C   0  0  0  0  0  0  0  0  0  0  0  0
   -5.3730  -46.3930   10.0470 C   0  0  0  0  0  0  0  0  0  0  0  0
   -6.6040  -45.7040    9.8660 C   0  0  0  0  0  0  0  0  0  0  0  0
   -6.8310  -44.9650    8.7310 C   0  0  0  0  0  0  0  0  0  0  0  0
   -3.4090  -46.7800    9.2530 H   0  0  0  0  0  0  0  0  0  0  0  0
   -5.2630  -47.0440   10.9110 H   0  0  0  0  0  0  0  0  0  0  0  0
   -7.3750  -45.7880   10.6320 H   0  0  0  0  0  0  0  0  0  0  0  0
   -7.7900  -44.4850    8.5580 H   0  0  0  0  0  0  0  0  0  0  0  0
   -5.2290  -43.4980    4.6310 H   0  0  0  0  0  0  0  0  0  0  0  0
   -7.0220  -43.6690    6.3490 H   0  0  0  0  0  0  0  0  0  0  0  0
    1.1800  -50.7880    6.9330 N   0  0  0  0  0  0  0  0  0  0  0  0
    1.7280  -51.4990    7.4050 H   0  0  0  0  0  0  0  0  0  0  0  0
  1  2  2  0  0  0  0
  2  3  1  0  0  0  0
  2  4  1  0  0  0  0
  4 11  2  0  0  0  0
  4 43  1  0  0  0  0
  5  6  2  0  0  0  0
  5 10  1  0  0  0  0
  5 43  1  0  0  0  0
  6  7  1  0  0  0  0
  6 20  1  0  0  0  0
  7  8  2  0  0  0  0
  7 21  1  0  0  0  0
  8  9  1  0  0  0  0
  8 22  1  0  0  0  0
  9 10  2  0  0  0  0
  9 23  1  0  0  0  0
 10 11  1  0  0  0  0
 11 12  1  0  0  0  0
 12 24  1  0  0  0  0
 12 25  1  0  0  0  0
 12 13  1  0  0  0  0
 13 14  1  0  0  0  0
 13 26  1  0  0  0  0
 13 27  1  0  0  0  0
 14 15  1  0  0  0  0
 14 28  1  0  0  0  0
 14 29  1  0  0  0  0
 15 16  1  0  0  0  0
 16 19  2  0  0  0  0
 16 32  1  0  0  0  0
 17 18  2  0  0  0  0
 17 31  1  0  0  0  0
 17 42  1  0  0  0  0
 18 19  1  0  0  0  0
 18 41  1  0  0  0  0
 19 30  1  0  0  0  0
 31 32  2  0  0  0  0
 31 36  1  0  0  0  0
 32 33  1  0  0  0  0
 33 34  2  0  0  0  0
 33 37  1  0  0  0  0
 34 35  1  0  0  0  0
 34 38  1  0  0  0  0
 35 36  2  0  0  0  0
 35 39  1  0  0  0  0
 36 40  1  0  0  0  0
 43 44  1  0  0  0  0
M  CHG  1   3  -1
M  END
$$$$
