ejm_43
 OpenBabel04222415263D
Structure written by MMmdl.
 38 39  0  0  0  0  0  0  0  0999 V2000
   -1.6150   21.5230  -27.6010 C   0  0  0  0  0  0  0  0  0  0  0  0
   -1.1010   22.5940  -28.3360 C   0  0  0  0  0  0  0  0  0  0  0  0
   -1.8930   23.1900  -29.3200 C   0  0  0  0  0  0  0  0  0  0  0  0
   -3.1900   22.7420  -29.6010 C   0  0  0  0  0  0  0  0  0  0  0  0
   -3.6770   21.6610  -28.8500 C   0  0  0  0  0  0  0  0  0  0  0  0
   -2.9090   21.0580  -27.8530 C   0  0  0  0  0  0  0  0  0  0  0  0
   -5.2470   21.0540  -29.1700 Cl  0  0  0  0  0  0  0  0  0  0  0  0
   -4.0420   23.3190  -30.6950 C   0  0  0  0  0  0  0  0  0  0  0  0
   -4.4780   22.6410  -31.6000 O   0  0  0  0  0  0  0  0  0  0  0  0
   -4.3060   24.6970  -30.5440 N   0  0  0  0  0  0  0  0  0  0  0  0
   -5.1140   25.5040  -31.3960 C   0  0  0  0  0  0  0  0  0  0  0  0
   -5.8070   24.9990  -32.5060 C   0  0  0  0  0  0  0  0  0  0  0  0
   -6.6130   25.8780  -33.2430 C   0  0  0  0  0  0  0  0  0  0  0  0
   -6.7450   27.1960  -32.9550 N   0  0  0  0  0  0  0  0  0  0  0  0
   -6.0430   27.6870  -31.8680 C   0  0  0  0  0  0  0  0  0  0  0  0
   -5.2220   26.8730  -31.0720 C   0  0  0  0  0  0  0  0  0  0  0  0
   -6.2250   29.0810  -31.6360 N   0  0  0  0  0  0  0  0  0  0  0  0
   -5.4430   29.8920  -30.7640 C   0  0  0  0  0  0  0  0  0  0  0  0
   -4.6700   29.3790  -29.9780 O   0  0  0  0  0  0  0  0  0  0  0  0
   -5.6210   31.4050  -30.9290 C   0  0  0  0  0  0  0  0  0  0  0  0
   -1.2270   24.5100  -30.1890 Cl  0  0  0  0  0  0  0  0  0  0  0  0
   -4.3250   31.9610  -31.5380 C   0  0  0  0  0  0  0  0  0  0  0  0
   -1.0020   21.0500  -26.8260 H   0  0  0  0  0  0  0  0  0  0  0  0
   -0.0910   22.9590  -28.1250 H   0  0  0  0  0  0  0  0  0  0  0  0
   -3.3020   20.2320  -27.2570 H   0  0  0  0  0  0  0  0  0  0  0  0
   -3.8720   25.1830  -29.7380 H   0  0  0  0  0  0  0  0  0  0  0  0
   -5.7510   23.9460  -32.7960 H   0  0  0  0  0  0  0  0  0  0  0  0
   -7.1880   25.5060  -34.1090 H   0  0  0  0  0  0  0  0  0  0  0  0
   -4.6740   27.2930  -30.2220 H   0  0  0  0  0  0  0  0  0  0  0  0
   -7.0510   29.5060  -32.1100 H   0  0  0  0  0  0  0  0  0  0  0  0
   -5.9010   32.0610  -29.5740 C   0  0  0  0  0  0  0  0  0  0  0  0
   -6.4790   31.6470  -31.6120 H   0  0  0  0  0  0  0  0  0  0  0  0
   -5.7250   33.1630  -29.6540 H   0  0  0  0  0  0  0  0  0  0  0  0
   -6.9600   31.9210  -29.2880 H   0  0  0  0  0  0  0  0  0  0  0  0
   -5.2320   31.6670  -28.7780 H   0  0  0  0  0  0  0  0  0  0  0  0
   -4.4400   33.0630  -31.6700 H   0  0  0  0  0  0  0  0  0  0  0  0
   -4.1140   31.5050  -32.5240 H   0  0  0  0  0  0  0  0  0  0  0  0
   -3.4610   31.7800  -30.8570 H   0  0  0  0  0  0  0  0  0  0  0  0
  1  2  2  0  0  0  0
  1  6  1  0  0  0  0
  1 23  1  0  0  0  0
  2  3  1  0  0  0  0
  2 24  1  0  0  0  0
  3  4  2  0  0  0  0
  3 21  1  0  0  0  0
  4  5  1  0  0  0  0
  4  8  1  0  0  0  0
  5  6  2  0  0  0  0
  5  7  1  0  0  0  0
  6 25  1  0  0  0  0
  8  9  2  0  0  0  0
  8 10  1  0  0  0  0
 10 11  1  0  0  0  0
 10 26  1  0  0  0  0
 11 12  2  0  0  0  0
 11 16  1  0  0  0  0
 12 13  1  0  0  0  0
 12 27  1  0  0  0  0
 13 14  2  0  0  0  0
 13 28  1  0  0  0  0
 14 15  1  0  0  0  0
 15 16  2  0  0  0  0
 15 17  1  0  0  0  0
 16 29  1  0  0  0  0
 17 18  1  0  0  0  0
 17 30  1  0  0  0  0
 18 19  2  0  0  0  0
 18 20  1  0  0  0  0
 20 22  1  0  0  0  0
 20 31  1  0  0  0  0
 20 32  1  0  0  0  0
 22 36  1  0  0  0  0
 22 37  1  0  0  0  0
 22 38  1  0  0  0  0
 31 33  1  0  0  0  0
 31 34  1  0  0  0  0
 31 35  1  0  0  0  0
M  END
$$$$
