p38a_3flw
 OpenBabel02232411163D
Structure written by MMmdl.
 49 51  0  0  0  0  0  0  0  0999 V2000
   38.2810   36.5280   17.1960 C   0  0  0  0  0  0  0  0  0  0  0  0
   37.6220   36.6680   15.9670 C   0  0  0  0  0  0  0  0  0  0  0  0
   31.8780   38.1610   26.0380 C   0  0  0  0  0  0  0  0  0  0  0  0
   31.1480   37.8990   27.3580 C   0  0  0  0  0  0  0  0  0  0  0  0
   34.0750   39.1540   26.9030 C   0  0  0  0  0  0  0  0  0  0  0  0
   33.5350   35.0960   23.6150 C   0  0  0  0  0  0  0  0  0  0  0  0
   38.0510   35.9660   19.4700 F   0  0  0  0  0  0  0  0  0  0  0  0
   37.5080   36.0860   18.2670 C   0  0  0  0  0  0  0  0  0  0  0  0
   38.3100   37.1550   14.9380 F   0  0  0  0  0  0  0  0  0  0  0  0
   36.2720   36.3600   15.7780 C   0  0  0  0  0  0  0  0  0  0  0  0
   35.5210   35.9050   16.8660 C   0  0  0  0  0  0  0  0  0  0  0  0
   36.1450   35.7590   18.1080 C   0  0  0  0  0  0  0  0  0  0  0  0
   35.4430   35.1410   19.1530 O   0  0  0  0  0  0  0  0  0  0  0  0
   35.0060   35.9800   20.1750 C   0  0  0  0  0  0  0  0  0  0  0  0
   35.0190   37.3320   20.1990 C   0  0  0  0  0  0  0  0  0  0  0  0
   34.5420   38.0070   21.3750 C   0  0  0  0  0  0  0  0  0  0  0  0
   34.5200   39.4230   21.4950 C   0  0  0  0  0  0  0  0  0  0  0  0
   34.1060   40.0520   22.6030 N   0  0  0  0  0  0  0  0  0  0  0  0
   34.4720   35.1310   21.2740 C   0  0  0  0  0  0  0  0  0  0  0  0
   34.3740   33.9230   21.2440 O   0  0  0  0  0  0  0  0  0  0  0  0
   34.0500   35.8570   22.4420 N   0  0  0  0  0  0  0  0  0  0  0  0
   34.0780   37.2600   22.4970 C   0  0  0  0  0  0  0  0  0  0  0  0
   33.6520   37.8750   23.6510 N   0  0  0  0  0  0  0  0  0  0  0  0
   33.6460   39.2510   23.6730 C   0  0  0  0  0  0  0  0  0  0  0  0
   33.0890   39.9460   24.7300 N   0  0  0  0  0  0  0  0  0  0  0  0
   32.7860   39.4030   26.0960 C   0  0  0  0  0  0  0  0  0  0  0  0
   34.7220   40.4670   27.3600 C   0  0  0  0  0  0  0  0  0  0  0  0
   35.6830   40.2270   28.4020 O   0  0  0  0  0  0  0  0  0  0  0  0
   32.1120   37.2850   28.2520 O   0  0  0  0  0  0  0  0  0  0  0  0
   39.3360   36.7910   17.3170 H   0  0  0  0  0  0  0  0  0  0  0  0
   32.4820   37.2540   25.7770 H   0  0  0  0  0  0  0  0  0  0  0  0
   31.1060   38.3100   25.2410 H   0  0  0  0  0  0  0  0  0  0  0  0
   30.7820   38.8350   27.8350 H   0  0  0  0  0  0  0  0  0  0  0  0
   30.3130   37.1760   27.2010 H   0  0  0  0  0  0  0  0  0  0  0  0
   33.7980   38.5510   27.8110 H   0  0  0  0  0  0  0  0  0  0  0  0
   34.7930   38.5510   26.3040 H   0  0  0  0  0  0  0  0  0  0  0  0
   32.4600   35.3660   23.8020 H   0  0  0  0  0  0  0  0  0  0  0  0
   33.6090   33.9940   23.4270 H   0  0  0  0  0  0  0  0  0  0  0  0
   34.1330   35.3550   24.5300 H   0  0  0  0  0  0  0  0  0  0  0  0
   35.7940   36.4860   14.8030 H   0  0  0  0  0  0  0  0  0  0  0  0
   34.4560   35.6830   16.7380 H   0  0  0  0  0  0  0  0  0  0  0  0
   35.3820   37.9400   19.3670 H   0  0  0  0  0  0  0  0  0  0  0  0
   34.8530   40.0510   20.6520 H   0  0  0  0  0  0  0  0  0  0  0  0
   33.2890   40.9700   24.7690 H   0  0  0  0  0  0  0  0  0  0  0  0
   32.2030   40.2450   26.5810 H   0  0  0  0  0  0  0  0  0  0  0  0
   35.2260   40.9900   26.5160 H   0  0  0  0  0  0  0  0  0  0  0  0
   33.9800   41.1420   27.8510 H   0  0  0  0  0  0  0  0  0  0  0  0
   36.3850   39.6200   28.0660 H   0  0  0  0  0  0  0  0  0  0  0  0
   31.6500   37.0290   29.0860 H   0  0  0  0  0  0  0  0  0  0  0  0
  1  2  2  0  0  0  0
  1  8  1  0  0  0  0
  1 30  1  0  0  0  0
  2  9  1  0  0  0  0
  2 10  1  0  0  0  0
  3  4  1  0  0  0  0
  3 26  1  0  0  0  0
  3 31  1  0  0  0  0
  3 32  1  0  0  0  0
  4 29  1  0  0  0  0
  4 33  1  0  0  0  0
  4 34  1  0  0  0  0
  5 26  1  0  0  0  0
  5 27  1  0  0  0  0
  5 35  1  0  0  0  0
  5 36  1  0  0  0  0
  6 21  1  0  0  0  0
  6 37  1  0  0  0  0
  6 38  1  0  0  0  0
  6 39  1  0  0  0  0
  7  8  1  0  0  0  0
  8 12  2  0  0  0  0
 10 11  2  0  0  0  0
 10 40  1  0  0  0  0
 11 12  1  0  0  0  0
 11 41  1  0  0  0  0
 12 13  1  0  0  0  0
 13 14  1  0  0  0  0
 14 15  2  0  0  0  0
 14 19  1  0  0  0  0
 15 16  1  0  0  0  0
 15 42  1  0  0  0  0
 16 17  2  0  0  0  0
 16 22  1  0  0  0  0
 17 18  1  0  0  0  0
 17 43  1  0  0  0  0
 18 24  2  0  0  0  0
 19 20  2  0  0  0  0
 19 21  1  0  0  0  0
 21 22  1  0  0  0  0
 22 23  2  0  0  0  0
 23 24  1  0  0  0  0
 24 25  1  0  0  0  0
 25 26  1  0  0  0  0
 25 44  1  0  0  0  0
 26 45  1  0  0  0  0
 27 28  1  0  0  0  0
 27 46  1  0  0  0  0
 27 47  1  0  0  0  0
 28 48  1  0  0  0  0
 29 49  1  0  0  0  0
M  END
$$$$
