p38a_2aa
 OpenBabel02232411163D
Structure written by MMmdl.
 43 45  0  0  0  0  0  0  0  0999 V2000
   38.2560   36.4980   17.2340 C   0  0  0  0  0  0  0  0  0  0  0  0
   34.3600   35.1270   21.2720 C   0  0  0  0  0  0  0  0  0  0  0  0
   37.4790   36.0590   18.3030 C   0  0  0  0  0  0  0  0  0  0  0  0
   33.6210   39.2590   23.6780 C   0  0  0  0  0  0  0  0  0  0  0  0
   32.7290   39.3630   26.0630 C   0  0  0  0  0  0  0  0  0  0  0  0
   34.5040   38.0010   21.3890 C   0  0  0  0  0  0  0  0  0  0  0  0
   35.0020   37.3180   20.2270 C   0  0  0  0  0  0  0  0  0  0  0  0
   37.6010   36.6350   16.0030 C   0  0  0  0  0  0  0  0  0  0  0  0
   36.2520   36.3290   15.8100 C   0  0  0  0  0  0  0  0  0  0  0  0
   35.4960   35.8780   16.8980 C   0  0  0  0  0  0  0  0  0  0  0  0
   33.9520   37.2650   22.4780 C   0  0  0  0  0  0  0  0  0  0  0  0
   34.5550   39.4140   21.5290 C   0  0  0  0  0  0  0  0  0  0  0  0
   34.9530   35.9670   20.1960 C   0  0  0  0  0  0  0  0  0  0  0  0
   36.1160   35.7340   18.1420 C   0  0  0  0  0  0  0  0  0  0  0  0
   33.2500   35.1210   23.5390 C   0  0  0  0  0  0  0  0  0  0  0  0
   38.0200   35.9410   19.5080 F   0  0  0  0  0  0  0  0  0  0  0  0
   35.4120   35.1200   19.1880 O   0  0  0  0  0  0  0  0  0  0  0  0
   34.1540   40.0500   22.6390 N   0  0  0  0  0  0  0  0  0  0  0  0
   34.2710   33.9190   21.2510 O   0  0  0  0  0  0  0  0  0  0  0  0
   33.8700   35.8640   22.4060 N   0  0  0  0  0  0  0  0  0  0  0  0
   33.5050   37.8890   23.6200 N   0  0  0  0  0  0  0  0  0  0  0  0
   33.1250   39.9610   24.7620 N   0  0  0  0  0  0  0  0  0  0  0  0
   39.3110   36.7600   17.3560 H   0  0  0  0  0  0  0  0  0  0  0  0
   31.3600   38.6570   25.9360 C   0  0  0  0  0  0  0  0  0  0  0  0
   35.4100   37.9180   19.4100 H   0  0  0  0  0  0  0  0  0  0  0  0
   35.7760   36.4510   14.8340 H   0  0  0  0  0  0  0  0  0  0  0  0
   34.4310   35.6570   16.7680 H   0  0  0  0  0  0  0  0  0  0  0  0
   34.9370   40.0320   20.7010 H   0  0  0  0  0  0  0  0  0  0  0  0
   33.8330   35.2960   24.4830 H   0  0  0  0  0  0  0  0  0  0  0  0
   32.1970   35.4780   23.6990 H   0  0  0  0  0  0  0  0  0  0  0  0
   33.2320   34.0210   23.3200 H   0  0  0  0  0  0  0  0  0  0  0  0
   33.4050   40.9610   24.8530 H   0  0  0  0  0  0  0  0  0  0  0  0
   38.2930   37.1200   14.9750 F   0  0  0  0  0  0  0  0  0  0  0  0
   33.7820   38.4120   26.6810 C   0  0  0  0  0  0  0  0  0  0  0  0
   35.0600   39.0530   26.7760 O   0  0  0  0  0  0  0  0  0  0  0  0
   35.0030   39.8200   27.3990 H   0  0  0  0  0  0  0  0  0  0  0  0
   33.4390   38.0960   27.6960 H   0  0  0  0  0  0  0  0  0  0  0  0
   33.9870   37.5270   26.0340 H   0  0  0  0  0  0  0  0  0  0  0  0
   30.8300   38.6850   27.2820 O   0  0  0  0  0  0  0  0  0  0  0  0
   30.6610   39.2420   25.2950 H   0  0  0  0  0  0  0  0  0  0  0  0
   31.4440   37.6000   25.6060 H   0  0  0  0  0  0  0  0  0  0  0  0
   30.0540   38.0220   27.3090 H   0  0  0  0  0  0  0  0  0  0  0  0
   32.5820   40.2430   26.7630 H   0  0  0  0  0  0  0  0  0  0  0  0
  1  3  2  0  0  0  0
  1  8  1  0  0  0  0
  1 23  1  0  0  0  0
  2 13  1  0  0  0  0
  2 19  2  0  0  0  0
  2 20  1  0  0  0  0
  3 14  1  0  0  0  0
  3 16  1  0  0  0  0
  4 18  2  0  0  0  0
  4 21  1  0  0  0  0
  4 22  1  0  0  0  0
  5 22  1  0  0  0  0
  5 24  1  0  0  0  0
  5 34  1  0  0  0  0
  5 43  1  0  0  0  0
  6  7  1  0  0  0  0
  6 11  1  0  0  0  0
  6 12  2  0  0  0  0
  7 13  2  0  0  0  0
  7 25  1  0  0  0  0
  8  9  2  0  0  0  0
  8 33  1  0  0  0  0
  9 10  1  0  0  0  0
  9 26  1  0  0  0  0
 10 14  2  0  0  0  0
 10 27  1  0  0  0  0
 11 20  1  0  0  0  0
 11 21  2  0  0  0  0
 12 18  1  0  0  0  0
 12 28  1  0  0  0  0
 13 17  1  0  0  0  0
 14 17  1  0  0  0  0
 15 20  1  0  0  0  0
 15 29  1  0  0  0  0
 15 30  1  0  0  0  0
 15 31  1  0  0  0  0
 22 32  1  0  0  0  0
 24 39  1  0  0  0  0
 24 40  1  0  0  0  0
 24 41  1  0  0  0  0
 34 35  1  0  0  0  0
 34 37  1  0  0  0  0
 34 38  1  0  0  0  0
 35 36  1  0  0  0  0
 39 42  1  0  0  0  0
M  END
$$$$
