68
                    3D
 Schrodinger Suite 2022-3.
 43 46  0  0  1  0  0  0  0  0999 V2000
    3.2440  -47.6190    7.3100 O   0  0  0  0  0  0  0  0  0  0  0  0
    3.0780  -48.7420    6.8250 C   0  0  0  0  0  0  0  0  0  0  0  0
    3.9170  -49.5950    6.5070 O   0  5  0  0  0  0  0  0  0  0  0  0
    1.6050  -49.1740    6.6090 C   0  0  0  0  0  0  0  0  0  0  0  0
    0.0540  -50.7750    6.8070 C   0  0  0  0  0  0  0  0  0  0  0  0
   -0.6090  -51.9590    7.1110 C   0  0  0  0  0  0  0  0  0  0  0  0
   -1.9740  -51.9950    6.8190 C   0  0  0  0  0  0  0  0  0  0  0  0
   -2.5910  -50.8760    6.2370 C   0  0  0  0  0  0  0  0  0  0  0  0
   -1.9390  -49.6830    5.9320 C   0  0  0  0  0  0  0  0  0  0  0  0
   -0.5790  -49.6210    6.2360 C   0  0  0  0  0  0  0  0  0  0  0  0
    0.4510  -48.6030    6.1370 C   0  0  0  0  0  0  0  0  0  0  0  0
    0.2210  -47.2180    5.6480 C   0  0  0  0  0  0  0  0  0  0  0  0
    0.1570  -46.1930    6.7940 C   0  0  0  0  0  0  0  0  0  0  0  0
   -1.0210  -46.3880    7.7420 C   0  0  0  0  0  0  0  0  0  0  0  0
   -2.1570  -45.7260    7.0660 O   0  0  0  0  0  0  0  0  0  0  0  0
   -3.3730  -45.7580    7.6820 C   0  0  0  0  0  0  0  0  0  0  0  0
   -5.9670  -45.5950    8.7510 C   0  0  0  0  0  0  0  0  0  0  0  0
   -4.9910  -46.3230    9.3850 C   0  0  0  0  0  0  0  0  0  0  0  0
   -3.6750  -46.4160    8.8600 C   0  0  0  0  0  0  0  0  0  0  0  0
   -0.1170  -52.8250    7.5590 H   0  0  0  0  0  0  0  0  0  0  0  0
   -2.5610  -52.8870    7.0490 H   0  0  0  0  0  0  0  0  0  0  0  0
   -4.2820  -50.9890    5.8730 Cl  0  0  0  0  0  0  0  0  0  0  0  0
   -2.4770  -48.8470    5.4830 H   0  0  0  0  0  0  0  0  0  0  0  0
   -0.7440  -47.1820    5.0770 H   0  0  0  0  0  0  0  0  0  0  0  0
    1.0490  -46.9160    4.9590 H   0  0  0  0  0  0  0  0  0  0  0  0
    0.0890  -45.1670    6.3640 H   0  0  0  0  0  0  0  0  0  0  0  0
    1.0990  -46.2780    7.3970 H   0  0  0  0  0  0  0  0  0  0  0  0
   -0.8770  -45.8380    8.6960 H   0  0  0  0  0  0  0  0  0  0  0  0
   -1.2960  -47.4550    7.8750 H   0  0  0  0  0  0  0  0  0  0  0  0
   -2.9550  -47.0120    9.4110 H   0  0  0  0  0  0  0  0  0  0  0  0
   -5.6890  -44.9470    7.5070 C   0  0  0  0  0  0  0  0  0  0  0  0
   -4.3800  -45.0110    6.9600 C   0  0  0  0  0  0  0  0  0  0  0  0
   -4.1140  -44.4020    5.7000 C   0  0  0  0  0  0  0  0  0  0  0  0
   -5.1110  -43.7480    5.0160 C   0  0  0  0  0  0  0  0  0  0  0  0
   -6.4260  -43.6970    5.5520 C   0  0  0  0  0  0  0  0  0  0  0  0
   -6.7100  -44.2750    6.7660 C   0  0  0  0  0  0  0  0  0  0  0  0
   -3.1130  -44.4870    5.2730 H   0  0  0  0  0  0  0  0  0  0  0  0
   -4.9080  -43.2740    4.0580 H   0  0  0  0  0  0  0  0  0  0  0  0
   -7.2070  -43.1990    4.9810 H   0  0  0  0  0  0  0  0  0  0  0  0
   -7.7200  -44.2480    7.1710 H   0  0  0  0  0  0  0  0  0  0  0  0
   -5.2210  -46.8550   10.3100 H   0  0  0  0  0  0  0  0  0  0  0  0
   -6.9700  -45.5200    9.1690 H   0  0  0  0  0  0  0  0  0  0  0  0
    1.4060  -50.5080    7.0190 O   0  0  0  0  0  0  0  0  0  0  0  0
  1  2  2  0  0  0  0
  2  3  1  0  0  0  0
  2  4  1  0  0  0  0
  4 11  2  0  0  0  0
  4 43  1  0  0  0  0
  5  6  1  0  0  0  0
  5 10  2  0  0  0  0
  5 43  1  0  0  0  0
  6  7  2  0  0  0  0
  6 20  1  0  0  0  0
  7  8  1  0  0  0  0
  7 21  1  0  0  0  0
  8  9  2  0  0  0  0
  8 22  1  0  0  0  0
  9 10  1  0  0  0  0
  9 23  1  0  0  0  0
 10 11  1  0  0  0  0
 11 12  1  0  0  0  0
 12 24  1  0  0  0  0
 12 25  1  0  0  0  0
 12 13  1  0  0  0  0
 13 14  1  0  0  0  0
 13 26  1  0  0  0  0
 13 27  1  0  0  0  0
 14 15  1  0  0  0  0
 14 28  1  0  0  0  0
 14 29  1  0  0  0  0
 15 16  1  0  0  0  0
 16 19  2  0  0  0  0
 16 32  1  0  0  0  0
 17 18  2  0  0  0  0
 17 31  1  0  0  0  0
 17 42  1  0  0  0  0
 18 19  1  0  0  0  0
 18 41  1  0  0  0  0
 19 30  1  0  0  0  0
 31 32  2  0  0  0  0
 31 36  1  0  0  0  0
 32 33  1  0  0  0  0
 33 34  2  0  0  0  0
 33 37  1  0  0  0  0
 34 35  1  0  0  0  0
 34 38  1  0  0  0  0
 35 36  2  0  0  0  0
 35 39  1  0  0  0  0
 36 40  1  0  0  0  0
M  CHG  1   3  -1
M  END
$$$$
