p38a_3fmk
 OpenBabel02232411163D
Structure written by MMmdl.
 46 49  0  0  1  0  0  0  0  0999 V2000
   35.6200   35.5230   16.9950 C   0  0  0  0  0  0  0  0  0  0  0  0
   36.3630   35.9590   15.9020 C   0  0  0  0  0  0  0  0  0  0  0  0
   33.8100   34.9700   23.9090 C   0  0  0  0  0  0  0  0  0  0  0  0
   38.2170   36.4440   17.4520 C   0  0  0  0  0  0  0  0  0  0  0  0
   34.7620   39.2980   21.7810 C   0  0  0  0  0  0  0  0  0  0  0  0
   33.9070   38.9790   26.5550 C   0  0  1  0  0  0  0  0  0  0  0  0
   33.5360   39.9820   27.6900 C   0  0  0  0  0  0  0  0  0  0  0  0
   34.2570   39.1020   24.0630 C   0  0  0  0  0  0  0  0  0  0  0  0
   34.4710   35.0210   21.4710 C   0  0  0  0  0  0  0  0  0  0  0  0
   35.0000   35.8640   20.3650 C   0  0  0  0  0  0  0  0  0  0  0  0
   35.0910   37.2130   20.4150 C   0  0  0  0  0  0  0  0  0  0  0  0
   36.1370   35.5780   18.3060 C   0  0  0  0  0  0  0  0  0  0  0  0
   37.4390   36.0310   18.5390 C   0  0  0  0  0  0  0  0  0  0  0  0
   34.7380   37.8840   21.6370 C   0  0  0  0  0  0  0  0  0  0  0  0
   34.3630   37.1270   22.7860 C   0  0  0  0  0  0  0  0  0  0  0  0
   34.0850   39.7290   25.2740 N   0  0  0  0  0  0  0  0  0  0  0  0
   37.6520   36.4350   16.1740 C   0  0  0  0  0  0  0  0  0  0  0  0
   38.3580   36.9350   15.1620 F   0  0  0  0  0  0  0  0  0  0  0  0
   34.4000   35.0300   16.8260 F   0  0  0  0  0  0  0  0  0  0  0  0
   35.3080   35.0290   19.2910 O   0  0  0  0  0  0  0  0  0  0  0  0
   34.2430   33.8330   21.4020 O   0  0  0  0  0  0  0  0  0  0  0  0
   34.2220   35.7330   22.6970 N   0  0  0  0  0  0  0  0  0  0  0  0
   34.1280   37.7280   23.9970 N   0  0  0  0  0  0  0  0  0  0  0  0
   34.5310   39.9200   22.9460 N   0  0  0  0  0  0  0  0  0  0  0  0
   35.1380   38.1420   26.9060 C   0  0  0  0  0  0  0  0  0  0  0  0
   34.7010   40.6360   28.3290 N   0  0  0  0  0  0  0  0  0  0  0  0
   35.2110   40.2310   29.5270 N   0  0  0  0  0  0  0  0  0  0  0  0
   36.2860   41.0450   29.7280 C   0  0  0  0  0  0  0  0  0  0  0  0
   36.4050   41.9330   28.6250 N   0  0  0  0  0  0  0  0  0  0  0  0
   35.4450   41.6630   27.8000 N   0  0  0  0  0  0  0  0  0  0  0  0
   35.9540   35.9580   14.8890 H   0  0  0  0  0  0  0  0  0  0  0  0
   33.7470   33.8760   23.6770 H   0  0  0  0  0  0  0  0  0  0  0  0
   34.5560   35.1290   24.7350 H   0  0  0  0  0  0  0  0  0  0  0  0
   32.8080   35.3300   24.2680 H   0  0  0  0  0  0  0  0  0  0  0  0
   39.2400   36.7980   17.6050 H   0  0  0  0  0  0  0  0  0  0  0  0
   34.9790   39.9310   20.9040 H   0  0  0  0  0  0  0  0  0  0  0  0
   33.0100   38.2950   26.4360 H   0  0  0  0  0  0  0  0  0  0  0  0
   32.8500   40.7830   27.2930 H   0  0  0  0  0  0  0  0  0  0  0  0
   32.9700   39.4020   28.4810 H   0  0  0  0  0  0  0  0  0  0  0  0
   35.4390   37.8200   19.5750 H   0  0  0  0  0  0  0  0  0  0  0  0
   37.8430   36.0890   19.5520 H   0  0  0  0  0  0  0  0  0  0  0  0
   34.1460   40.7630   25.3370 H   0  0  0  0  0  0  0  0  0  0  0  0
   35.2140   37.2680   26.2130 H   0  0  0  0  0  0  0  0  0  0  0  0
   36.0730   38.7330   26.8370 H   0  0  0  0  0  0  0  0  0  0  0  0
   35.0260   37.7330   27.9390 H   0  0  0  0  0  0  0  0  0  0  0  0
   36.9520   41.0360   30.5910 H   0  0  0  0  0  0  0  0  0  0  0  0
  1  2  2  0  0  0  0
  1 12  1  0  0  0  0
  1 19  1  0  0  0  0
  2 17  1  0  0  0  0
  2 31  1  0  0  0  0
  3 22  1  0  0  0  0
  3 32  1  0  0  0  0
  3 33  1  0  0  0  0
  3 34  1  0  0  0  0
  4 13  1  0  0  0  0
  4 17  2  0  0  0  0
  4 35  1  0  0  0  0
  5 14  2  0  0  0  0
  5 24  1  0  0  0  0
  5 36  1  0  0  0  0
  6  7  1  0  0  0  0
  6 16  1  0  0  0  0
  6 25  1  0  0  0  0
  6 37  1  6  0  0  0
  7 26  1  0  0  0  0
  7 38  1  0  0  0  0
  7 39  1  0  0  0  0
  8 16  1  0  0  0  0
  8 23  1  0  0  0  0
  8 24  2  0  0  0  0
  9 10  1  0  0  0  0
  9 21  2  0  0  0  0
  9 22  1  0  0  0  0
 10 11  2  0  0  0  0
 10 20  1  0  0  0  0
 11 14  1  0  0  0  0
 11 40  1  0  0  0  0
 12 13  2  0  0  0  0
 12 20  1  0  0  0  0
 13 41  1  0  0  0  0
 14 15  1  0  0  0  0
 15 22  1  0  0  0  0
 15 23  2  0  0  0  0
 16 42  1  0  0  0  0
 17 18  1  0  0  0  0
 25 43  1  0  0  0  0
 25 44  1  0  0  0  0
 25 45  1  0  0  0  0
 26 27  1  0  0  0  0
 26 30  1  0  0  0  0
 27 28  2  0  0  0  0
 28 29  1  0  0  0  0
 28 46  1  0  0  0  0
 29 30  2  0  0  0  0
M  END
$$$$
