18652-1
 OpenBabel02232411163D
Structure written by MMmdl.
 55 56  0  0  0  0  0  0  0  0999 V2000
   23.2070   10.4930   28.9540 C   0  0  0  0  0  0  0  0  0  0  0  0
   23.5620   10.9570   30.3560 C   0  0  0  0  0  0  0  0  0  0  0  0
   24.0690   12.3930   30.4060 C   0  0  0  0  0  0  0  0  0  0  0  0
   22.3160   11.0600   31.1860 O   0  0  0  0  0  0  0  0  0  0  0  0
   21.6820    9.9440   31.5890 C   0  0  0  0  0  0  0  0  0  0  0  0
   22.1600    8.7290   31.2210 N   0  0  0  0  0  0  0  0  0  0  0  0
   21.4140    7.6160   31.5670 C   0  0  0  0  0  0  0  0  0  0  0  0
   20.2450    7.6960   32.3170 C   0  0  0  0  0  0  0  0  0  0  0  0
   19.7660    8.9680   32.7300 C   0  0  0  0  0  0  0  0  0  0  0  0
   18.5980    9.0490   33.4480 N   0  0  0  0  0  0  0  0  0  0  0  0
   20.5000   10.1420   32.3670 C   0  0  0  0  0  0  0  0  0  0  0  0
   20.1070   11.4550   32.7010 C   0  0  0  0  0  0  0  0  0  0  0  0
   19.8280   12.5550   32.9440 N   0  0  0  0  0  0  0  0  0  0  0  0
   21.9610    6.4180   31.0390 N   0  0  0  0  0  0  0  0  0  0  0  0
   21.2680    5.1940   30.9300 C   0  0  0  0  0  0  0  0  0  0  0  0
   20.1850    5.0060   31.4440 O   0  0  0  0  0  0  0  0  0  0  0  0
   21.9450    4.1660   30.0380 C   0  0  0  0  0  0  0  0  0  0  0  0
   23.3110    3.7210   30.4660 C   0  0  0  0  0  0  0  0  0  0  0  0
   24.4670    4.4020   29.9780 C   0  0  0  0  0  0  0  0  0  0  0  0
   24.1530    5.5330   29.2310 O   0  0  0  0  0  0  0  0  0  0  0  0
   25.2020    6.5260   29.0710 C   0  0  0  0  0  0  0  0  0  0  0  0
   25.7460    3.9030   30.1920 C   0  0  0  0  0  0  0  0  0  0  0  0
   25.9360    2.7420   30.9670 C   0  0  0  0  0  0  0  0  0  0  0  0
   27.5660    2.1140   31.0980 S   0  0  0  0  0  0  0  0  0  0  0  0
   27.5890    1.0820   32.1640 O   0  0  0  0  0  0  0  0  0  0  0  0
   28.5180    3.2080   31.4070 O   0  0  0  0  0  0  0  0  0  0  0  0
   27.8870    1.4160   29.5420 C   0  0  0  0  0  0  0  0  0  0  0  0
   24.8100    2.1290   31.5340 C   0  0  0  0  0  0  0  0  0  0  0  0
   23.4980    2.6000   31.2560 C   0  0  0  0  0  0  0  0  0  0  0  0
   25.0750    1.0790   32.3730 O   0  0  0  0  0  0  0  0  0  0  0  0
   23.9560    0.2530   32.8070 C   0  0  0  0  0  0  0  0  0  0  0  0
   22.8260    9.4450   28.9590 H   0  0  0  0  0  0  0  0  0  0  0  0
   22.4410   11.1520   28.4900 H   0  0  0  0  0  0  0  0  0  0  0  0
   24.1220   10.5250   28.3140 H   0  0  0  0  0  0  0  0  0  0  0  0
   24.2470   10.2470   30.8740 H   0  0  0  0  0  0  0  0  0  0  0  0
   24.3030   12.7020   31.4460 H   0  0  0  0  0  0  0  0  0  0  0  0
   24.9990   12.4660   29.7900 H   0  0  0  0  0  0  0  0  0  0  0  0
   23.3180   13.0990   29.9800 H   0  0  0  0  0  0  0  0  0  0  0  0
   19.6770    6.8000   32.5750 H   0  0  0  0  0  0  0  0  0  0  0  0
   18.0790    8.1930   33.7220 H   0  0  0  0  0  0  0  0  0  0  0  0
   18.2040    9.9470   33.7260 H   0  0  0  0  0  0  0  0  0  0  0  0
   22.8770    6.5100   30.5420 H   0  0  0  0  0  0  0  0  0  0  0  0
   21.2790    3.2650   29.9720 H   0  0  0  0  0  0  0  0  0  0  0  0
   22.0220    4.6260   29.0110 H   0  0  0  0  0  0  0  0  0  0  0  0
   25.9250    6.1670   28.3070 H   0  0  0  0  0  0  0  0  0  0  0  0
   24.6250    7.4080   28.7100 H   0  0  0  0  0  0  0  0  0  0  0  0
   25.6940    6.7370   30.0450 H   0  0  0  0  0  0  0  0  0  0  0  0
   26.6050    4.4090   29.7370 H   0  0  0  0  0  0  0  0  0  0  0  0
   27.8770    2.1840   28.7240 H   0  0  0  0  0  0  0  0  0  0  0  0
   28.8870    0.9140   29.4910 H   0  0  0  0  0  0  0  0  0  0  0  0
   27.1240    0.6470   29.2540 H   0  0  0  0  0  0  0  0  0  0  0  0
   22.6300    2.0660   31.6440 H   0  0  0  0  0  0  0  0  0  0  0  0
   23.2730    0.8360   33.4610 H   0  0  0  0  0  0  0  0  0  0  0  0
   23.4370   -0.1770   31.9240 H   0  0  0  0  0  0  0  0  0  0  0  0
   24.4780   -0.5470   33.3880 H   0  0  0  0  0  0  0  0  0  0  0  0
  1  2  1  0  0  0  0
  1 32  1  0  0  0  0
  1 33  1  0  0  0  0
  1 34  1  0  0  0  0
  2  3  1  0  0  0  0
  2  4  1  0  0  0  0
  2 35  1  0  0  0  0
  3 36  1  0  0  0  0
  3 37  1  0  0  0  0
  3 38  1  0  0  0  0
  4  5  1  0  0  0  0
  5 11  2  0  0  0  0
  5  6  1  0  0  0  0
  6  7  2  0  0  0  0
  7  8  1  0  0  0  0
  7 14  1  0  0  0  0
  8  9  2  0  0  0  0
  8 39  1  0  0  0  0
  9 10  1  0  0  0  0
  9 11  1  0  0  0  0
 10 40  1  0  0  0  0
 10 41  1  0  0  0  0
 11 12  1  0  0  0  0
 12 13  3  0  0  0  0
 14 15  1  0  0  0  0
 14 42  1  0  0  0  0
 15 16  2  0  0  0  0
 15 17  1  0  0  0  0
 17 18  1  0  0  0  0
 17 43  1  0  0  0  0
 17 44  1  0  0  0  0
 18 29  2  0  0  0  0
 18 19  1  0  0  0  0
 19 20  1  0  0  0  0
 19 22  2  0  0  0  0
 20 21  1  0  0  0  0
 21 45  1  0  0  0  0
 21 46  1  0  0  0  0
 21 47  1  0  0  0  0
 22 23  1  0  0  0  0
 22 48  1  0  0  0  0
 23 24  1  0  0  0  0
 23 28  2  0  0  0  0
 24 25  2  0  0  0  0
 24 26  2  0  0  0  0
 24 27  1  0  0  0  0
 27 49  1  0  0  0  0
 27 50  1  0  0  0  0
 27 51  1  0  0  0  0
 28 29  1  0  0  0  0
 28 30  1  0  0  0  0
 29 52  1  0  0  0  0
 30 31  1  0  0  0  0
 31 53  1  0  0  0  0
 31 54  1  0  0  0  0
 31 55  1  0  0  0  0
M  END
$$$$
