CAT-13j
                    3D
 Schrodinger Suite 2022-3.
 45 48  0  0  1  0  0  0  0  0999 V2000
   11.7190   -2.6240    1.4270 C   0  0  0  0  0  0  0  0  0  0  0  0
   13.0120   -2.9030    0.7720 N   0  0  0  0  0  0  0  0  0  0  0  0
   14.2150   -2.7830    1.4640 C   0  0  0  0  0  0  0  0  0  0  0  0
   14.3700   -2.6960    2.8170 N   0  0  0  0  0  0  0  0  0  0  0  0
   15.2820   -2.8500    0.5750 N   0  3  0  0  0  0  0  0  0  0  0  0
   14.8130   -3.1950   -0.8170 C   0  0  1  0  0  0  0  0  0  0  0  0
   15.2800   -2.1260   -1.7840 C   0  0  0  0  0  0  0  0  0  0  0  0
   15.9030   -2.4300   -2.9970 C   0  0  0  0  0  0  0  0  0  0  0  0
   16.2610   -1.3870   -3.8610 C   0  0  0  0  0  0  0  0  0  0  0  0
   16.0110   -0.0550   -3.5260 C   0  0  0  0  0  0  0  0  0  0  0  0
   15.3940    0.2580   -2.3000 C   0  0  0  0  0  0  0  0  0  0  0  0
   15.1320    1.6580   -1.8930 C   0  0  0  0  0  0  0  0  0  0  0  0
   14.5270    2.5680   -2.7730 C   0  0  0  0  0  0  0  0  0  0  0  0
   14.2690    3.8810   -2.3630 C   0  0  0  0  0  0  0  0  0  0  0  0
   14.5870    4.2990   -1.0680 C   0  0  0  0  0  0  0  0  0  0  0  0
   15.1710    3.3760   -0.1970 C   0  0  0  0  0  0  0  0  0  0  0  0
   15.4980    3.8320    1.4340 Cl  0  0  0  0  0  0  0  0  0  0  0  0
   15.4640    2.0710   -0.5920 C   0  0  0  0  0  0  0  0  0  0  0  0
   15.0250   -0.7860   -1.4430 C   0  0  0  0  0  0  0  0  0  0  0  0
   15.2160   -4.6340   -1.1060 C   0  0  0  0  0  0  0  0  0  0  0  0
   16.5430   -5.0540   -0.9610 C   0  0  0  0  0  0  0  0  0  0  0  0
   16.8310   -6.4170   -1.1260 C   0  0  0  0  0  0  0  0  0  0  0  0
   15.7970   -7.2990   -1.4380 C   0  0  0  0  0  0  0  0  0  0  0  0
   14.4900   -6.7940   -1.5970 C   0  0  0  0  0  0  0  0  0  0  0  0
   14.1950   -5.4830   -1.4240 N   0  0  0  0  0  0  0  0  0  0  0  0
   13.2520   -3.0850   -0.6790 C   0  0  0  0  0  0  0  0  0  0  0  0
   12.3720   -3.1050   -1.4710 O   0  0  0  0  0  0  0  0  0  0  0  0
   11.6530   -3.1810    2.4030 H   0  0  0  0  0  0  0  0  0  0  0  0
   11.6410   -1.5230    1.6270 H   0  0  0  0  0  0  0  0  0  0  0  0
   10.8780   -2.9560    0.7630 H   0  0  0  0  0  0  0  0  0  0  0  0
   15.3480   -2.5590    3.1950 H   0  0  0  0  0  0  0  0  0  0  0  0
   16.2520   -3.0650    0.9190 H   0  0  0  0  0  0  0  0  0  0  0  0
   16.1190   -3.4640   -3.2730 H   0  0  0  0  0  0  0  0  0  0  0  0
   16.7560   -1.6170   -4.8100 H   0  0  0  0  0  0  0  0  0  0  0  0
   16.3060    0.7430   -4.2160 H   0  0  0  0  0  0  0  0  0  0  0  0
   14.2430    2.2470   -3.7800 H   0  0  0  0  0  0  0  0  0  0  0  0
   13.8010    4.5840   -3.0630 H   0  0  0  0  0  0  0  0  0  0  0  0
   14.3690    5.3210   -0.7450 H   0  0  0  0  0  0  0  0  0  0  0  0
   15.9310    1.3660    0.0980 H   0  0  0  0  0  0  0  0  0  0  0  0
   14.5400   -0.5600   -0.4950 H   0  0  0  0  0  0  0  0  0  0  0  0
   17.3300   -4.3430   -0.7000 H   0  0  0  0  0  0  0  0  0  0  0  0
   17.8550   -6.7750   -0.9820 H   0  0  0  0  0  0  0  0  0  0  0  0
   15.9830   -8.3730   -1.5350 H   0  0  0  0  0  0  0  0  0  0  0  0
   13.6510   -7.4650   -1.8520 H   0  0  0  0  0  0  0  0  0  0  0  0
   13.6520   -2.2080    3.4090 H   0  0  0  0  0  0  0  0  0  0  0  0
  1  2  1  0  0  0  0
  1 28  1  0  0  0  0
  1 29  1  0  0  0  0
  1 30  1  0  0  0  0
  2  3  1  0  0  0  0
  2 26  1  0  0  0  0
  3  4  1  0  0  0  0
  3  5  2  0  0  0  0
  4 31  1  0  0  0  0
  4 45  1  0  0  0  0
  5  6  1  0  0  0  0
  5 32  1  0  0  0  0
  6  7  1  0  0  0  0
  6 20  1  0  0  0  0
  6 26  1  0  0  0  0
  7  8  2  0  0  0  0
  7 19  1  0  0  0  0
  8  9  1  0  0  0  0
  8 33  1  0  0  0  0
  9 10  2  0  0  0  0
  9 34  1  0  0  0  0
 10 11  1  0  0  0  0
 10 35  1  0  0  0  0
 11 12  1  0  0  0  0
 11 19  2  0  0  0  0
 12 13  2  0  0  0  0
 12 18  1  0  0  0  0
 13 14  1  0  0  0  0
 13 36  1  0  0  0  0
 14 15  2  0  0  0  0
 14 37  1  0  0  0  0
 15 16  1  0  0  0  0
 15 38  1  0  0  0  0
 16 17  1  0  0  0  0
 16 18  2  0  0  0  0
 18 39  1  0  0  0  0
 19 40  1  0  0  0  0
 20 21  2  0  0  0  0
 20 25  1  0  0  0  0
 21 22  1  0  0  0  0
 21 41  1  0  0  0  0
 22 23  2  0  0  0  0
 22 42  1  0  0  0  0
 23 24  1  0  0  0  0
 23 43  1  0  0  0  0
 24 25  2  0  0  0  0
 24 44  1  0  0  0  0
 26 27  2  0  0  0  0
M  CHG  1   5   1
M  END
$$$$
