p38a_2m
 OpenBabel02232411163D
Structure written by MMmdl.
 50 54  0  0  0  0  0  0  0  0999 V2000
   36.4150   36.1490   15.6710 C   0  0  0  0  0  0  0  0  0  0  0  0
   34.4710   34.9060   20.9720 C   0  0  0  0  0  0  0  0  0  0  0  0
   35.8320   35.6180   16.8170 C   0  0  0  0  0  0  0  0  0  0  0  0
   33.7980   38.8370   23.7260 C   0  0  0  0  0  0  0  0  0  0  0  0
   34.7480   37.7270   21.3910 C   0  0  0  0  0  0  0  0  0  0  0  0
   35.3700   37.1250   20.2430 C   0  0  0  0  0  0  0  0  0  0  0  0
   37.7000   36.6860   15.8170 C   0  0  0  0  0  0  0  0  0  0  0  0
   38.4010   36.6910   17.0250 C   0  0  0  0  0  0  0  0  0  0  0  0
   37.7770   36.1890   18.1730 C   0  0  0  0  0  0  0  0  0  0  0  0
   34.0470   36.9310   22.3500 C   0  0  0  0  0  0  0  0  0  0  0  0
   34.8380   39.1220   21.6480 C   0  0  0  0  0  0  0  0  0  0  0  0
   35.2690   35.7880   20.0840 C   0  0  0  0  0  0  0  0  0  0  0  0
   36.4940   35.6490   18.0620 C   0  0  0  0  0  0  0  0  0  0  0  0
   34.6330   35.0530   16.7640 F   0  0  0  0  0  0  0  0  0  0  0  0
   35.8570   34.9800   19.1140 O   0  0  0  0  0  0  0  0  0  0  0  0
   34.3870   39.6930   22.7730 N   0  0  0  0  0  0  0  0  0  0  0  0
   34.3150   33.7170   20.7970 O   0  0  0  0  0  0  0  0  0  0  0  0
   33.8360   35.5580   22.1000 N   0  0  0  0  0  0  0  0  0  0  0  0
   33.5890   37.4850   23.5160 N   0  0  0  0  0  0  0  0  0  0  0  0
   33.4130   39.4020   24.9170 N   0  0  0  0  0  0  0  0  0  0  0  0
   35.8910   36.1650   14.7130 H   0  0  0  0  0  0  0  0  0  0  0  0
   35.9170   37.7700   19.5520 H   0  0  0  0  0  0  0  0  0  0  0  0
   39.4080   37.1070   17.0930 H   0  0  0  0  0  0  0  0  0  0  0  0
   38.2910   36.2440   19.1360 H   0  0  0  0  0  0  0  0  0  0  0  0
   35.2980   39.7890   20.8980 H   0  0  0  0  0  0  0  0  0  0  0  0
   33.5770   40.4140   25.0790 H   0  0  0  0  0  0  0  0  0  0  0  0
   38.2630   37.2500   14.7510 F   0  0  0  0  0  0  0  0  0  0  0  0
   33.0780   40.2370   27.9880 C   0  0  0  0  0  0  0  0  0  0  0  0
   32.0830   39.6200   26.9960 C   0  0  0  0  0  0  0  0  0  0  0  0
   32.7410   38.6300   26.0120 C   0  0  0  0  0  0  0  0  0  0  0  0
   33.7170   37.6880   26.7470 C   0  0  0  0  0  0  0  0  0  0  0  0
   34.6450   38.4340   27.7060 C   0  0  0  0  0  0  0  0  0  0  0  0
   33.8920   39.2420   28.6410 O   0  0  0  0  0  0  0  0  0  0  0  0
   32.5460   40.7130   28.8430 H   0  0  0  0  0  0  0  0  0  0  0  0
   33.7480   40.9630   27.4740 H   0  0  0  0  0  0  0  0  0  0  0  0
   31.5900   40.4420   26.4230 H   0  0  0  0  0  0  0  0  0  0  0  0
   31.2920   39.0630   27.5550 H   0  0  0  0  0  0  0  0  0  0  0  0
   31.9260   38.0090   25.5400 H   0  0  0  0  0  0  0  0  0  0  0  0
   33.1010   36.9440   27.3150 H   0  0  0  0  0  0  0  0  0  0  0  0
   34.3310   37.1140   26.0110 H   0  0  0  0  0  0  0  0  0  0  0  0
   35.1770   37.7280   28.3840 H   0  0  0  0  0  0  0  0  0  0  0  0
   35.3530   39.0910   27.1520 H   0  0  0  0  0  0  0  0  0  0  0  0
   33.0190   34.6620   22.9430 C   0  0  0  0  0  0  0  0  0  0  0  0
   32.0690   35.0820   24.0480 C   0  0  0  0  0  0  0  0  0  0  0  0
   33.3700   34.3770   24.3960 C   0  0  0  0  0  0  0  0  0  0  0  0
   32.6710   33.7980   22.3290 H   0  0  0  0  0  0  0  0  0  0  0  0
   31.9350   36.1310   24.3430 H   0  0  0  0  0  0  0  0  0  0  0  0
   31.1220   34.5250   24.1310 H   0  0  0  0  0  0  0  0  0  0  0  0
   34.1550   34.9550   24.9000 H   0  0  0  0  0  0  0  0  0  0  0  0
   33.3360   33.3350   24.7470 H   0  0  0  0  0  0  0  0  0  0  0  0
  1  3  2  0  0  0  0
  1  7  1  0  0  0  0
  1 21  1  0  0  0  0
  2 12  1  0  0  0  0
  2 17  2  0  0  0  0
  2 18  1  0  0  0  0
  3 13  1  0  0  0  0
  3 14  1  0  0  0  0
  4 16  2  0  0  0  0
  4 19  1  0  0  0  0
  4 20  1  0  0  0  0
  5  6  1  0  0  0  0
  5 10  1  0  0  0  0
  5 11  2  0  0  0  0
  6 12  2  0  0  0  0
  6 22  1  0  0  0  0
  7  8  2  0  0  0  0
  7 27  1  0  0  0  0
  8  9  1  0  0  0  0
  8 23  1  0  0  0  0
  9 13  2  0  0  0  0
  9 24  1  0  0  0  0
 10 18  1  0  0  0  0
 10 19  2  0  0  0  0
 11 16  1  0  0  0  0
 11 25  1  0  0  0  0
 12 15  1  0  0  0  0
 13 15  1  0  0  0  0
 18 43  1  0  0  0  0
 20 26  1  0  0  0  0
 20 30  1  0  0  0  0
 28 29  1  0  0  0  0
 28 33  1  0  0  0  0
 28 34  1  0  0  0  0
 28 35  1  0  0  0  0
 29 30  1  0  0  0  0
 29 36  1  0  0  0  0
 29 37  1  0  0  0  0
 30 31  1  0  0  0  0
 30 38  1  0  0  0  0
 31 32  1  0  0  0  0
 31 39  1  0  0  0  0
 31 40  1  0  0  0  0
 32 33  1  0  0  0  0
 32 41  1  0  0  0  0
 32 42  1  0  0  0  0
 43 44  1  0  0  0  0
 43 45  1  0  0  0  0
 43 46  1  0  0  0  0
 44 45  1  0  0  0  0
 44 47  1  0  0  0  0
 44 48  1  0  0  0  0
 45 49  1  0  0  0  0
 45 50  1  0  0  0  0
M  END
$$$$
