p38a_2aa
 OpenBabel02232411163D
Structure written by MMmdl.
 43 45  0  0  0  0  0  0  0  0999 V2000
   38.2940   36.5400   17.1670 C   0  0  0  0  0  0  0  0  0  0  0  0
   34.4910   35.0470   21.1940 C   0  0  0  0  0  0  0  0  0  0  0  0
   37.5080   36.0870   18.2230 C   0  0  0  0  0  0  0  0  0  0  0  0
   33.7500   39.0780   23.7600 C   0  0  0  0  0  0  0  0  0  0  0  0
   32.6980   38.9490   26.0240 C   0  0  0  0  0  0  0  0  0  0  0  0
   34.5750   37.9230   21.3980 C   0  0  0  0  0  0  0  0  0  0  0  0
   35.0330   37.2870   20.1910 C   0  0  0  0  0  0  0  0  0  0  0  0
   37.6490   36.6960   15.9330 C   0  0  0  0  0  0  0  0  0  0  0  0
   36.3000   36.3970   15.7240 C   0  0  0  0  0  0  0  0  0  0  0  0
   35.5360   35.9280   16.7980 C   0  0  0  0  0  0  0  0  0  0  0  0
   34.1300   37.1310   22.4970 C   0  0  0  0  0  0  0  0  0  0  0  0
   34.5450   39.3330   21.5690 C   0  0  0  0  0  0  0  0  0  0  0  0
   35.0120   35.9360   20.1210 C   0  0  0  0  0  0  0  0  0  0  0  0
   36.1460   35.7640   18.0440 C   0  0  0  0  0  0  0  0  0  0  0  0
   33.6050   34.9310   23.5520 C   0  0  0  0  0  0  0  0  0  0  0  0
   38.0370   35.9540   19.4320 F   0  0  0  0  0  0  0  0  0  0  0  0
   35.4290   35.1280   19.0660 O   0  0  0  0  0  0  0  0  0  0  0  0
   34.1480   39.9220   22.7080 N   0  0  0  0  0  0  0  0  0  0  0  0
   34.3920   33.8410   21.1190 O   0  0  0  0  0  0  0  0  0  0  0  0
   34.0920   35.7300   22.3930 N   0  0  0  0  0  0  0  0  0  0  0  0
   33.7230   37.7050   23.6780 N   0  0  0  0  0  0  0  0  0  0  0  0
   33.4670   39.6840   24.9820 N   0  0  0  0  0  0  0  0  0  0  0  0
   39.3480   36.7970   17.3030 H   0  0  0  0  0  0  0  0  0  0  0  0
   32.6270   39.8320   27.2960 C   0  0  0  0  0  0  0  0  0  0  0  0
   35.3880   37.9200   19.3750 H   0  0  0  0  0  0  0  0  0  0  0  0
   35.8330   36.5380   14.7470 H   0  0  0  0  0  0  0  0  0  0  0  0
   34.4720   35.7080   16.6560 H   0  0  0  0  0  0  0  0  0  0  0  0
   34.8460   39.9930   20.7380 H   0  0  0  0  0  0  0  0  0  0  0  0
   34.2250   35.1530   24.4630 H   0  0  0  0  0  0  0  0  0  0  0  0
   32.5360   35.1920   23.7790 H   0  0  0  0  0  0  0  0  0  0  0  0
   33.6720   33.8350   23.3230 H   0  0  0  0  0  0  0  0  0  0  0  0
   33.2710   40.7070   24.9700 H   0  0  0  0  0  0  0  0  0  0  0  0
   38.3480   37.1960   14.9170 F   0  0  0  0  0  0  0  0  0  0  0  0
   31.2730   38.5500   25.5470 C   0  0  0  0  0  0  0  0  0  0  0  0
   30.7970   39.4560   24.5470 O   0  0  0  0  0  0  0  0  0  0  0  0
   30.2720   40.1920   24.9710 H   0  0  0  0  0  0  0  0  0  0  0  0
   31.3120   37.5710   25.0050 H   0  0  0  0  0  0  0  0  0  0  0  0
   30.5600   38.4930   26.3990 H   0  0  0  0  0  0  0  0  0  0  0  0
   33.9260   40.0520   27.8590 O   0  0  0  0  0  0  0  0  0  0  0  0
   32.1550   40.8160   27.0760 H   0  0  0  0  0  0  0  0  0  0  0  0
   32.0870   39.2860   28.1080 H   0  0  0  0  0  0  0  0  0  0  0  0
   34.4490   40.6180   27.2310 H   0  0  0  0  0  0  0  0  0  0  0  0
   33.2570   38.0000   26.2810 H   0  0  0  0  0  0  0  0  0  0  0  0
  1  3  2  0  0  0  0
  1  8  1  0  0  0  0
  1 23  1  0  0  0  0
  2 13  1  0  0  0  0
  2 19  2  0  0  0  0
  2 20  1  0  0  0  0
  3 14  1  0  0  0  0
  3 16  1  0  0  0  0
  4 18  2  0  0  0  0
  4 21  1  0  0  0  0
  4 22  1  0  0  0  0
  5 22  1  0  0  0  0
  5 24  1  0  0  0  0
  5 34  1  0  0  0  0
  5 43  1  0  0  0  0
  6  7  1  0  0  0  0
  6 11  1  0  0  0  0
  6 12  2  0  0  0  0
  7 13  2  0  0  0  0
  7 25  1  0  0  0  0
  8  9  2  0  0  0  0
  8 33  1  0  0  0  0
  9 10  1  0  0  0  0
  9 26  1  0  0  0  0
 10 14  2  0  0  0  0
 10 27  1  0  0  0  0
 11 20  1  0  0  0  0
 11 21  2  0  0  0  0
 12 18  1  0  0  0  0
 12 28  1  0  0  0  0
 13 17  1  0  0  0  0
 14 17  1  0  0  0  0
 15 20  1  0  0  0  0
 15 29  1  0  0  0  0
 15 30  1  0  0  0  0
 15 31  1  0  0  0  0
 22 32  1  0  0  0  0
 24 39  1  0  0  0  0
 24 40  1  0  0  0  0
 24 41  1  0  0  0  0
 34 35  1  0  0  0  0
 34 37  1  0  0  0  0
 34 38  1  0  0  0  0
 35 36  1  0  0  0  0
 39 42  1  0  0  0  0
M  END
$$$$
