2k
                    3D
 Schrodinger Suite 2022-3.
 43 46  0  0  1  0  0  0  0  0999 V2000
   27.1810    8.9650   30.4300 C   0  0  0  0  0  0  0  0  0  0  0  0
   28.5440    9.5350   30.8370 C   0  0  0  0  0  0  0  0  0  0  0  0
   28.5800    8.2240   32.8720 C   0  0  0  0  0  0  0  0  0  0  0  0
   27.2350    7.5690   32.5370 C   0  0  0  0  0  0  0  0  0  0  0  0
   15.9350   10.5260   31.6890 C   0  0  0  0  0  0  0  0  0  0  0  0
   29.2870    8.6230   31.6770 O   0  0  0  0  0  0  0  0  0  0  0  0
   21.3470   12.5670   31.2680 C   0  0  0  0  0  0  0  0  0  0  0  0
   17.2270   11.0300   31.8240 C   0  0  0  0  0  0  0  0  0  0  0  0
   23.9640    8.5140   31.0120 C   0  0  0  0  0  0  0  0  0  0  0  0
   26.3910    8.5420   31.6880 C   0  0  0  0  0  0  0  0  0  0  0  0
   21.5110    9.7360   30.7120 C   0  0  0  0  0  0  0  0  0  0  0  0
   20.2330   10.3940   30.6800 C   0  0  0  0  0  0  0  0  0  0  0  0
   15.2580   10.8400   30.5040 C   0  0  0  0  0  0  0  0  0  0  0  0
   15.8140   11.6200   29.4870 C   0  0  0  0  0  0  0  0  0  0  0  0
   17.1060   12.1300   29.6530 C   0  0  0  0  0  0  0  0  0  0  0  0
   22.6690   10.4660   31.1000 C   0  0  0  0  0  0  0  0  0  0  0  0
   21.7030    8.3650   30.3910 C   0  0  0  0  0  0  0  0  0  0  0  0
   20.1640   11.7130   30.9790 C   0  0  0  0  0  0  0  0  0  0  0  0
   17.8040   11.8480   30.8310 C   0  0  0  0  0  0  0  0  0  0  0  0
   17.9400   10.7280   32.9010 F   0  0  0  0  0  0  0  0  0  0  0  0
   14.0340   10.3470   30.3310 F   0  0  0  0  0  0  0  0  0  0  0  0
   19.0200   12.5040   31.0620 O   0  0  0  0  0  0  0  0  0  0  0  0
   22.8840    7.7460   30.5280 N   0  0  0  0  0  0  0  0  0  0  0  0
   21.3630   13.7640   31.4460 O   0  0  0  0  0  0  0  0  0  0  0  0
   22.5840   11.8440   31.3450 N   0  0  0  0  0  0  0  0  0  0  0  0
   23.8970    9.8770   31.2460 N   0  0  0  0  0  0  0  0  0  0  0  0
   25.1240    7.8440   31.3130 N   0  0  0  0  0  0  0  0  0  0  0  0
   15.2660   11.8230   28.5660 H   0  0  0  0  0  0  0  0  0  0  0  0
   17.5630   12.7360   28.8630 H   0  0  0  0  0  0  0  0  0  0  0  0
   15.4920    9.8880   32.4540 H   0  0  0  0  0  0  0  0  0  0  0  0
   19.3570    9.7980   30.4200 H   0  0  0  0  0  0  0  0  0  0  0  0
   20.8600    7.7690   30.0050 H   0  0  0  0  0  0  0  0  0  0  0  0
   27.3190    8.0760   29.7720 H   0  0  0  0  0  0  0  0  0  0  0  0
   26.6160    9.7420   29.8630 H   0  0  0  0  0  0  0  0  0  0  0  0
   28.4270   10.5040   31.3750 H   0  0  0  0  0  0  0  0  0  0  0  0
   29.2220    9.6370   29.9600 H   0  0  0  0  0  0  0  0  0  0  0  0
   29.2820    7.4900   33.3300 H   0  0  0  0  0  0  0  0  0  0  0  0
   28.4380    9.1160   33.5250 H   0  0  0  0  0  0  0  0  0  0  0  0
   26.6960    7.3170   33.4830 H   0  0  0  0  0  0  0  0  0  0  0  0
   27.4080    6.6190   31.9740 H   0  0  0  0  0  0  0  0  0  0  0  0
   26.1340    9.4500   32.3010 H   0  0  0  0  0  0  0  0  0  0  0  0
   25.2350    6.8600   30.9890 H   0  0  0  0  0  0  0  0  0  0  0  0
   23.4600   12.3520   31.5790 H   0  0  0  0  0  0  0  0  0  0  0  0
  1  2  1  0  0  0  0
  1 10  1  0  0  0  0
  1 33  1  0  0  0  0
  1 34  1  0  0  0  0
  2  6  1  0  0  0  0
  2 35  1  0  0  0  0
  2 36  1  0  0  0  0
  3  4  1  0  0  0  0
  3  6  1  0  0  0  0
  3 37  1  0  0  0  0
  3 38  1  0  0  0  0
  4 10  1  0  0  0  0
  4 39  1  0  0  0  0
  4 40  1  0  0  0  0
  5  8  1  0  0  0  0
  5 13  2  0  0  0  0
  5 30  1  0  0  0  0
  7 18  1  0  0  0  0
  7 24  2  0  0  0  0
  7 25  1  0  0  0  0
  8 19  2  0  0  0  0
  8 20  1  0  0  0  0
  9 23  1  0  0  0  0
  9 26  2  0  0  0  0
  9 27  1  0  0  0  0
 10 27  1  0  0  0  0
 10 41  1  0  0  0  0
 11 12  1  0  0  0  0
 11 16  2  0  0  0  0
 11 17  1  0  0  0  0
 12 18  2  0  0  0  0
 12 31  1  0  0  0  0
 13 14  1  0  0  0  0
 13 21  1  0  0  0  0
 14 15  2  0  0  0  0
 14 28  1  0  0  0  0
 15 19  1  0  0  0  0
 15 29  1  0  0  0  0
 16 25  1  0  0  0  0
 16 26  1  0  0  0  0
 17 23  2  0  0  0  0
 17 32  1  0  0  0  0
 18 22  1  0  0  0  0
 19 22  1  0  0  0  0
 25 43  1  0  0  0  0
 27 42  1  0  0  0  0
M  END
$$$$
