p38a_2aa
 OpenBabel02232411163D
Structure written by MMmdl.
 43 45  0  0  0  0  0  0  0  0999 V2000
   36.3820   36.0730   15.7340 C   0  0  0  0  0  0  0  0  0  0  0  0
   34.5950   34.9960   21.2800 C   0  0  0  0  0  0  0  0  0  0  0  0
   35.7110   35.5790   16.8480 C   0  0  0  0  0  0  0  0  0  0  0  0
   34.1960   39.0830   23.8290 C   0  0  0  0  0  0  0  0  0  0  0  0
   33.5910   39.0160   26.2720 C   0  0  0  0  0  0  0  0  0  0  0  0
   34.8040   37.8630   21.4400 C   0  0  0  0  0  0  0  0  0  0  0  0
   35.2160   37.1920   20.2360 C   0  0  0  0  0  0  0  0  0  0  0  0
   37.6720   36.5740   15.9530 C   0  0  0  0  0  0  0  0  0  0  0  0
   38.3010   36.5640   17.2010 C   0  0  0  0  0  0  0  0  0  0  0  0
   37.5910   36.0990   18.3130 C   0  0  0  0  0  0  0  0  0  0  0  0
   34.4270   37.1020   22.5870 C   0  0  0  0  0  0  0  0  0  0  0  0
   34.7790   39.2770   21.5680 C   0  0  0  0  0  0  0  0  0  0  0  0
   35.1540   35.8420   20.1900 C   0  0  0  0  0  0  0  0  0  0  0  0
   36.2940   35.6100   18.1310 C   0  0  0  0  0  0  0  0  0  0  0  0
   33.9650   34.9310   23.7250 C   0  0  0  0  0  0  0  0  0  0  0  0
   34.4990   35.0550   16.7280 F   0  0  0  0  0  0  0  0  0  0  0  0
   35.5450   35.0030   19.1480 O   0  0  0  0  0  0  0  0  0  0  0  0
   34.4810   39.9010   22.7190 N   0  0  0  0  0  0  0  0  0  0  0  0
   34.3570   33.8120   21.1990 O   0  0  0  0  0  0  0  0  0  0  0  0
   34.3340   35.7040   22.5060 N   0  0  0  0  0  0  0  0  0  0  0  0
   34.1350   37.7050   23.7870 N   0  0  0  0  0  0  0  0  0  0  0  0
   33.9780   39.7230   25.0280 N   0  0  0  0  0  0  0  0  0  0  0  0
   35.9190   36.0930   14.7460 H   0  0  0  0  0  0  0  0  0  0  0  0
   34.8480   38.9050   27.1800 C   0  0  0  0  0  0  0  0  0  0  0  0
   35.5840   37.8040   19.4090 H   0  0  0  0  0  0  0  0  0  0  0  0
   39.3200   36.9440   17.3190 H   0  0  0  0  0  0  0  0  0  0  0  0
   38.0450   36.1490   19.3050 H   0  0  0  0  0  0  0  0  0  0  0  0
   35.0030   39.9130   20.6960 H   0  0  0  0  0  0  0  0  0  0  0  0
   34.7040   35.1410   24.5460 H   0  0  0  0  0  0  0  0  0  0  0  0
   32.9430   35.2350   24.0810 H   0  0  0  0  0  0  0  0  0  0  0  0
   33.9670   33.8320   23.5040 H   0  0  0  0  0  0  0  0  0  0  0  0
   33.9810   40.7600   25.0730 H   0  0  0  0  0  0  0  0  0  0  0  0
   38.3120   37.1180   14.9200 F   0  0  0  0  0  0  0  0  0  0  0  0
   32.4550   39.8190   26.9640 C   0  0  0  0  0  0  0  0  0  0  0  0
   31.8790   39.0550   28.0270 O   0  0  0  0  0  0  0  0  0  0  0  0
   32.6310   38.6750   28.5720 H   0  0  0  0  0  0  0  0  0  0  0  0
   32.8440   40.7800   27.3780 H   0  0  0  0  0  0  0  0  0  0  0  0
   31.6060   39.9960   26.2630 H   0  0  0  0  0  0  0  0  0  0  0  0
   34.5460   38.0910   28.3280 O   0  0  0  0  0  0  0  0  0  0  0  0
   35.7010   38.4640   26.6170 H   0  0  0  0  0  0  0  0  0  0  0  0
   35.1230   39.8890   27.6260 H   0  0  0  0  0  0  0  0  0  0  0  0
   34.5170   37.1360   28.0580 H   0  0  0  0  0  0  0  0  0  0  0  0
   33.2140   37.9800   26.0370 H   0  0  0  0  0  0  0  0  0  0  0  0
  1  3  2  0  0  0  0
  1  8  1  0  0  0  0
  1 23  1  0  0  0  0
  2 13  1  0  0  0  0
  2 19  2  0  0  0  0
  2 20  1  0  0  0  0
  3 14  1  0  0  0  0
  3 16  1  0  0  0  0
  4 18  2  0  0  0  0
  4 21  1  0  0  0  0
  4 22  1  0  0  0  0
  5 22  1  0  0  0  0
  5 24  1  0  0  0  0
  5 34  1  0  0  0  0
  5 43  1  0  0  0  0
  6  7  1  0  0  0  0
  6 11  1  0  0  0  0
  6 12  2  0  0  0  0
  7 13  2  0  0  0  0
  7 25  1  0  0  0  0
  8  9  2  0  0  0  0
  8 33  1  0  0  0  0
  9 10  1  0  0  0  0
  9 26  1  0  0  0  0
 10 14  2  0  0  0  0
 10 27  1  0  0  0  0
 11 20  1  0  0  0  0
 11 21  2  0  0  0  0
 12 18  1  0  0  0  0
 12 28  1  0  0  0  0
 13 17  1  0  0  0  0
 14 17  1  0  0  0  0
 15 20  1  0  0  0  0
 15 29  1  0  0  0  0
 15 30  1  0  0  0  0
 15 31  1  0  0  0  0
 22 32  1  0  0  0  0
 24 39  1  0  0  0  0
 24 40  1  0  0  0  0
 24 41  1  0  0  0  0
 34 35  1  0  0  0  0
 34 37  1  0  0  0  0
 34 38  1  0  0  0  0
 35 36  1  0  0  0  0
 39 42  1  0  0  0  0
M  END
$$$$
