p38a_2aa
 OpenBabel02232411163D
Structure written by MMmdl.
 43 45  0  0  0  0  0  0  0  0999 V2000
   36.3590   36.0010   15.8210 C   0  0  0  0  0  0  0  0  0  0  0  0
   34.5540   35.0450   21.3960 C   0  0  0  0  0  0  0  0  0  0  0  0
   35.6680   35.5320   16.9340 C   0  0  0  0  0  0  0  0  0  0  0  0
   34.2720   39.1950   23.8550 C   0  0  0  0  0  0  0  0  0  0  0  0
   33.7650   39.2600   26.3310 C   0  0  0  0  0  0  0  0  0  0  0  0
   34.7760   37.9130   21.4800 C   0  0  0  0  0  0  0  0  0  0  0  0
   35.1600   37.2110   20.2850 C   0  0  0  0  0  0  0  0  0  0  0  0
   37.6480   36.4990   16.0490 C   0  0  0  0  0  0  0  0  0  0  0  0
   38.2610   36.5050   17.3060 C   0  0  0  0  0  0  0  0  0  0  0  0
   37.5320   36.0610   18.4150 C   0  0  0  0  0  0  0  0  0  0  0  0
   34.4210   37.1840   22.6550 C   0  0  0  0  0  0  0  0  0  0  0  0
   34.7530   39.3310   21.5670 C   0  0  0  0  0  0  0  0  0  0  0  0
   35.0950   35.8600   20.2750 C   0  0  0  0  0  0  0  0  0  0  0  0
   36.2340   35.5790   18.2240 C   0  0  0  0  0  0  0  0  0  0  0  0
   33.9380   35.0490   23.8470 C   0  0  0  0  0  0  0  0  0  0  0  0
   34.4530   35.0150   16.8040 F   0  0  0  0  0  0  0  0  0  0  0  0
   35.4630   35.0000   19.2420 O   0  0  0  0  0  0  0  0  0  0  0  0
   34.5020   39.9840   22.7130 N   0  0  0  0  0  0  0  0  0  0  0  0
   34.3120   33.8600   21.3520 O   0  0  0  0  0  0  0  0  0  0  0  0
   34.3120   35.7870   22.6080 N   0  0  0  0  0  0  0  0  0  0  0  0
   34.1660   37.8230   23.8470 N   0  0  0  0  0  0  0  0  0  0  0  0
   34.2100   39.8810   25.0540 N   0  0  0  0  0  0  0  0  0  0  0  0
   35.9100   36.0070   14.8250 H   0  0  0  0  0  0  0  0  0  0  0  0
   34.6460   39.8340   27.4710 C   0  0  0  0  0  0  0  0  0  0  0  0
   35.5120   37.8000   19.4350 H   0  0  0  0  0  0  0  0  0  0  0  0
   39.2810   36.8790   17.4290 H   0  0  0  0  0  0  0  0  0  0  0  0
   37.9730   36.1200   19.4130 H   0  0  0  0  0  0  0  0  0  0  0  0
   34.9370   39.9410   20.6670 H   0  0  0  0  0  0  0  0  0  0  0  0
   34.6470   35.3130   24.6790 H   0  0  0  0  0  0  0  0  0  0  0  0
   32.8980   35.3320   24.1650 H   0  0  0  0  0  0  0  0  0  0  0  0
   33.9810   33.9430   23.6690 H   0  0  0  0  0  0  0  0  0  0  0  0
   34.1030   40.9120   25.0210 H   0  0  0  0  0  0  0  0  0  0  0  0
   38.3050   37.0260   15.0190 F   0  0  0  0  0  0  0  0  0  0  0  0
   32.2570   39.5620   26.5450 C   0  0  0  0  0  0  0  0  0  0  0  0
   31.7440   38.8650   27.6810 O   0  0  0  0  0  0  0  0  0  0  0  0
   31.8010   37.8850   27.5250 H   0  0  0  0  0  0  0  0  0  0  0  0
   32.1140   40.6340   26.8230 H   0  0  0  0  0  0  0  0  0  0  0  0
   31.6700   39.2840   25.6400 H   0  0  0  0  0  0  0  0  0  0  0  0
   34.2640   41.1560   27.8800 O   0  0  0  0  0  0  0  0  0  0  0  0
   34.5060   39.2270   28.3990 H   0  0  0  0  0  0  0  0  0  0  0  0
   35.7160   39.8610   27.1580 H   0  0  0  0  0  0  0  0  0  0  0  0
   34.1080   41.7160   27.0590 H   0  0  0  0  0  0  0  0  0  0  0  0
   33.9340   38.1450   26.2920 H   0  0  0  0  0  0  0  0  0  0  0  0
  1  3  2  0  0  0  0
  1  8  1  0  0  0  0
  1 23  1  0  0  0  0
  2 13  1  0  0  0  0
  2 19  2  0  0  0  0
  2 20  1  0  0  0  0
  3 14  1  0  0  0  0
  3 16  1  0  0  0  0
  4 18  2  0  0  0  0
  4 21  1  0  0  0  0
  4 22  1  0  0  0  0
  5 22  1  0  0  0  0
  5 24  1  0  0  0  0
  5 34  1  0  0  0  0
  5 43  1  0  0  0  0
  6  7  1  0  0  0  0
  6 11  1  0  0  0  0
  6 12  2  0  0  0  0
  7 13  2  0  0  0  0
  7 25  1  0  0  0  0
  8  9  2  0  0  0  0
  8 33  1  0  0  0  0
  9 10  1  0  0  0  0
  9 26  1  0  0  0  0
 10 14  2  0  0  0  0
 10 27  1  0  0  0  0
 11 20  1  0  0  0  0
 11 21  2  0  0  0  0
 12 18  1  0  0  0  0
 12 28  1  0  0  0  0
 13 17  1  0  0  0  0
 14 17  1  0  0  0  0
 15 20  1  0  0  0  0
 15 29  1  0  0  0  0
 15 30  1  0  0  0  0
 15 31  1  0  0  0  0
 22 32  1  0  0  0  0
 24 39  1  0  0  0  0
 24 40  1  0  0  0  0
 24 41  1  0  0  0  0
 34 35  1  0  0  0  0
 34 37  1  0  0  0  0
 34 38  1  0  0  0  0
 35 36  1  0  0  0  0
 39 42  1  0  0  0  0
M  END
$$$$
