23486
 OpenBabel02232411173D
Structure written by MMmdl.
 60 63  0  0  0  0  0  0  0  0999 V2000
   42.6740   17.8920   12.4830 O   0  0  0  0  0  0  0  0  0  0  0  0
   41.5320   17.5900   12.8490 C   0  0  0  0  0  0  0  0  0  0  0  0
   40.5290   18.3350   12.8300 O   0  5  0  0  0  0  0  0  0  0  0  0
   41.2770   16.1290   13.3330 C   0  0  0  0  0  0  0  0  0  0  0  0
   42.6400   15.6450   13.5700 O   0  0  0  0  0  0  0  0  0  0  0  0
   42.7640   14.8260   14.6470 C   0  0  0  0  0  0  0  0  0  0  0  0
   42.1230   13.5320   14.7330 C   0  0  0  0  0  0  0  0  0  0  0  0
   40.9940   13.0700   13.5310 Cl  0  0  0  0  0  0  0  0  0  0  0  0
   42.4990   12.7680   15.8070 C   0  0  0  0  0  0  0  0  0  0  0  0
   42.0440   11.4380   16.1530 C   0  0  0  0  0  0  0  0  0  0  0  0
   42.8590   10.4850   16.8070 C   0  0  0  0  0  0  0  0  0  0  0  0
   42.3880    9.1910   17.0050 C   0  0  0  0  0  0  0  0  0  0  0  0
   41.1360    8.7720   16.5240 C   0  0  0  0  0  0  0  0  0  0  0  0
   40.3120    9.7100   15.8930 C   0  0  0  0  0  0  0  0  0  0  0  0
   38.9820    9.4590   15.4190 N   0  0  0  0  0  0  0  0  0  0  0  0
   38.5090    8.0940   15.0660 C   0  0  0  0  0  0  0  0  0  0  0  0
   36.9810    8.2150   14.8090 C   0  0  0  0  0  0  0  0  0  0  0  0
   36.3810    6.8810   14.3310 C   0  0  0  0  0  0  0  0  0  0  0  0
   37.0870    6.4160   13.0970 N   0  0  0  0  0  0  0  0  0  0  0  0
   36.2510    5.3100   12.1100 S   0  0  0  0  0  0  0  0  0  0  0  0
   37.1030    4.9510   10.9820 O   0  0  0  0  0  0  0  0  0  0  0  0
   35.0310    5.9920   11.6510 O   0  0  0  0  0  0  0  0  0  0  0  0
   35.8750    3.8760   13.0670 C   0  0  0  0  0  0  0  0  0  0  0  0
   36.6460    2.7050   12.5450 C   0  0  0  0  0  0  0  0  0  0  0  0
   36.0580    1.8080   11.6380 C   0  0  0  0  0  0  0  0  0  0  0  0
   36.8120    0.7600   11.1020 C   0  0  0  0  0  0  0  0  0  0  0  0
   38.1490    0.5890   11.4730 C   0  0  0  0  0  0  0  0  0  0  0  0
   38.7280    1.4630   12.3990 C   0  0  0  0  0  0  0  0  0  0  0  0
   37.9800    2.5100   12.9410 C   0  0  0  0  0  0  0  0  0  0  0  0
   38.5390    6.1910   13.3730 C   0  0  0  0  0  0  0  0  0  0  0  0
   39.1920    7.5180   13.7970 C   0  0  0  0  0  0  0  0  0  0  0  0
   40.7510   11.0490   15.7750 C   0  0  0  0  0  0  0  0  0  0  0  0
   43.6940   13.6740   16.7150 S   0  0  0  0  0  0  0  0  0  0  0  0
   43.6170   15.0870   15.6850 C   0  0  0  0  0  0  0  0  0  0  0  0
   44.4090   16.3630   15.9810 C   0  0  0  0  0  0  0  0  0  0  0  0
   45.5460   16.1880   16.4690 O   0  0  0  0  0  0  0  0  0  0  0  0
   43.9130   17.4510   15.6900 O   0  5  0  0  0  0  0  0  0  0  0  0
   40.8450   15.5030   12.5270 H   0  0  0  0  0  0  0  0  0  0  0  0
   40.6530   16.0790   14.2490 H   0  0  0  0  0  0  0  0  0  0  0  0
   43.8600   10.7420   17.1570 H   0  0  0  0  0  0  0  0  0  0  0  0
   43.0070    8.4630   17.5330 H   0  0  0  0  0  0  0  0  0  0  0  0
   40.8310    7.7360   16.6480 H   0  0  0  0  0  0  0  0  0  0  0  0
   38.7110   10.1220   14.6560 H   0  0  0  0  0  0  0  0  0  0  0  0
   38.6840    7.3980   15.9260 H   0  0  0  0  0  0  0  0  0  0  0  0
   36.4730    8.4990   15.7600 H   0  0  0  0  0  0  0  0  0  0  0  0
   36.7900    8.9950   14.0340 H   0  0  0  0  0  0  0  0  0  0  0  0
   36.4790    6.1240   15.1610 H   0  0  0  0  0  0  0  0  0  0  0  0
   35.2960    7.0310   14.1020 H   0  0  0  0  0  0  0  0  0  0  0  0
   36.1140    4.0260   14.1610 H   0  0  0  0  0  0  0  0  0  0  0  0
   34.7690    3.6610   13.0640 H   0  0  0  0  0  0  0  0  0  0  0  0
   35.0080    1.9150   11.3510 H   0  0  0  0  0  0  0  0  0  0  0  0
   36.3510    0.0690   10.3900 H   0  0  0  0  0  0  0  0  0  0  0  0
   38.7360   -0.2300   11.0500 H   0  0  0  0  0  0  0  0  0  0  0  0
   39.7690    1.3250   12.7070 H   0  0  0  0  0  0  0  0  0  0  0  0
   38.4430    3.1680   13.6830 H   0  0  0  0  0  0  0  0  0  0  0  0
   38.6730    5.4410   14.2030 H   0  0  0  0  0  0  0  0  0  0  0  0
   39.0430    5.8120   12.4480 H   0  0  0  0  0  0  0  0  0  0  0  0
   39.0960    8.2510   12.9690 H   0  0  0  0  0  0  0  0  0  0  0  0
   40.2680    7.3200   14.0140 H   0  0  0  0  0  0  0  0  0  0  0  0
   40.0420   11.7840   15.3990 H   0  0  0  0  0  0  0  0  0  0  0  0
  1  2  2  0  0  0  0
  2  3  1  0  0  0  0
  2  4  1  0  0  0  0
  4  5  1  0  0  0  0
  4 38  1  0  0  0  0
  4 39  1  0  0  0  0
  5  6  1  0  0  0  0
  6 34  2  0  0  0  0
  6  7  1  0  0  0  0
  7  8  1  0  0  0  0
  7  9  2  0  0  0  0
  9 10  1  0  0  0  0
  9 33  1  0  0  0  0
 10 32  2  0  0  0  0
 10 11  1  0  0  0  0
 11 12  2  0  0  0  0
 11 40  1  0  0  0  0
 12 13  1  0  0  0  0
 12 41  1  0  0  0  0
 13 14  2  0  0  0  0
 13 42  1  0  0  0  0
 14 15  1  0  0  0  0
 14 32  1  0  0  0  0
 15 16  1  0  0  0  0
 15 43  1  0  0  0  0
 16 31  1  0  0  0  0
 16 17  1  0  0  0  0
 16 44  1  0  0  0  0
 17 18  1  0  0  0  0
 17 45  1  0  0  0  0
 17 46  1  0  0  0  0
 18 19  1  0  0  0  0
 18 47  1  0  0  0  0
 18 48  1  0  0  0  0
 19 20  1  0  0  0  0
 19 30  1  0  0  0  0
 20 21  2  0  0  0  0
 20 22  2  0  0  0  0
 20 23  1  0  0  0  0
 23 24  1  0  0  0  0
 23 49  1  0  0  0  0
 23 50  1  0  0  0  0
 24 29  2  0  0  0  0
 24 25  1  0  0  0  0
 25 26  2  0  0  0  0
 25 51  1  0  0  0  0
 26 27  1  0  0  0  0
 26 52  1  0  0  0  0
 27 28  2  0  0  0  0
 27 53  1  0  0  0  0
 28 29  1  0  0  0  0
 28 54  1  0  0  0  0
 29 55  1  0  0  0  0
 30 31  1  0  0  0  0
 30 56  1  0  0  0  0
 30 57  1  0  0  0  0
 31 58  1  0  0  0  0
 31 59  1  0  0  0  0
 32 60  1  0  0  0  0
 33 34  1  0  0  0  0
 34 35  1  0  0  0  0
 35 36  2  0  0  0  0
 35 37  1  0  0  0  0
M  CHG  2   3  -1  37  -1
M  END
$$$$
