18658-1
 OpenBabel02232411163D
Structure written by MMmdl.
 47 48  0  0  0  0  0  0  0  0999 V2000
   23.1280   12.2460   28.7590 O   0  0  0  0  0  0  0  0  0  0  0  0
   23.4880   10.9210   29.2160 C   0  0  0  0  0  0  0  0  0  0  0  0
   23.6120   11.0120   30.7330 C   0  0  0  0  0  0  0  0  0  0  0  0
   22.2940   11.1350   31.3700 O   0  0  0  0  0  0  0  0  0  0  0  0
   21.5940   10.0100   31.6550 C   0  0  0  0  0  0  0  0  0  0  0  0
   22.0350    8.8200   31.1900 N   0  0  0  0  0  0  0  0  0  0  0  0
   21.2660    7.7000   31.4720 C   0  0  0  0  0  0  0  0  0  0  0  0
   20.1050    7.7600   32.2360 C   0  0  0  0  0  0  0  0  0  0  0  0
   19.6550    9.0150   32.7260 C   0  0  0  0  0  0  0  0  0  0  0  0
   18.5080    9.0750   33.4750 N   0  0  0  0  0  0  0  0  0  0  0  0
   20.4020   10.1970   32.4140 C   0  0  0  0  0  0  0  0  0  0  0  0
   20.0140   11.5050   32.7770 C   0  0  0  0  0  0  0  0  0  0  0  0
   19.7470   12.6050   33.0270 N   0  0  0  0  0  0  0  0  0  0  0  0
   21.8070    6.5380   30.8820 N   0  0  0  0  0  0  0  0  0  0  0  0
   21.1840    5.2740   30.7750 C   0  0  0  0  0  0  0  0  0  0  0  0
   20.1000    5.0340   31.2620 O   0  0  0  0  0  0  0  0  0  0  0  0
   21.9730    4.2870   29.9260 C   0  0  0  0  0  0  0  0  0  0  0  0
   23.3050    3.9350   30.5190 C   0  0  0  0  0  0  0  0  0  0  0  0
   24.4370    4.7530   30.2870 C   0  0  0  0  0  0  0  0  0  0  0  0
   24.1680    5.8360   29.4540 O   0  0  0  0  0  0  0  0  0  0  0  0
   25.1830    6.8700   29.3480 C   0  0  0  0  0  0  0  0  0  0  0  0
   25.6880    4.4560   30.8400 C   0  0  0  0  0  0  0  0  0  0  0  0
   25.8330    3.3210   31.6320 C   0  0  0  0  0  0  0  0  0  0  0  0
   24.7180    2.4900   31.8500 C   0  0  0  0  0  0  0  0  0  0  0  0
   23.4620    2.7840   31.2980 C   0  0  0  0  0  0  0  0  0  0  0  0
   25.0050    1.4110   32.6600 O   0  0  0  0  0  0  0  0  0  0  0  0
   24.0030    0.3680   32.7800 C   0  0  0  0  0  0  0  0  0  0  0  0
   22.9550   12.1730   27.7620 H   0  0  0  0  0  0  0  0  0  0  0  0
   22.7000   10.1990   28.9000 H   0  0  0  0  0  0  0  0  0  0  0  0
   24.4800   10.6510   28.7700 H   0  0  0  0  0  0  0  0  0  0  0  0
   24.0700   11.9820   31.0480 H   0  0  0  0  0  0  0  0  0  0  0  0
   24.1650   10.1320   31.1420 H   0  0  0  0  0  0  0  0  0  0  0  0
   19.5230    6.8610   32.4480 H   0  0  0  0  0  0  0  0  0  0  0  0
   17.9980    8.2110   33.7410 H   0  0  0  0  0  0  0  0  0  0  0  0
   18.1330    9.9640   33.8040 H   0  0  0  0  0  0  0  0  0  0  0  0
   22.7370    6.6710   30.4090 H   0  0  0  0  0  0  0  0  0  0  0  0
   21.3590    3.3600   29.7920 H   0  0  0  0  0  0  0  0  0  0  0  0
   22.1360    4.7580   28.9180 H   0  0  0  0  0  0  0  0  0  0  0  0
   26.0620    6.4720   28.7990 H   0  0  0  0  0  0  0  0  0  0  0  0
   24.6490    7.6460   28.7530 H   0  0  0  0  0  0  0  0  0  0  0  0
   25.4580    7.2530   30.3540 H   0  0  0  0  0  0  0  0  0  0  0  0
   26.5570    5.0930   30.6540 H   0  0  0  0  0  0  0  0  0  0  0  0
   26.8050    3.0790   32.0710 H   0  0  0  0  0  0  0  0  0  0  0  0
   22.6100    2.1260   31.4710 H   0  0  0  0  0  0  0  0  0  0  0  0
   24.5380   -0.3860   33.4060 H   0  0  0  0  0  0  0  0  0  0  0  0
   23.1040    0.7570   33.3040 H   0  0  0  0  0  0  0  0  0  0  0  0
   23.7640   -0.0460   31.7760 H   0  0  0  0  0  0  0  0  0  0  0  0
  1  2  1  0  0  0  0
  1 28  1  0  0  0  0
  2  3  1  0  0  0  0
  2 29  1  0  0  0  0
  2 30  1  0  0  0  0
  3  4  1  0  0  0  0
  3 31  1  0  0  0  0
  3 32  1  0  0  0  0
  4  5  1  0  0  0  0
  5 11  2  0  0  0  0
  5  6  1  0  0  0  0
  6  7  2  0  0  0  0
  7  8  1  0  0  0  0
  7 14  1  0  0  0  0
  8  9  2  0  0  0  0
  8 33  1  0  0  0  0
  9 10  1  0  0  0  0
  9 11  1  0  0  0  0
 10 34  1  0  0  0  0
 10 35  1  0  0  0  0
 11 12  1  0  0  0  0
 12 13  3  0  0  0  0
 14 15  1  0  0  0  0
 14 36  1  0  0  0  0
 15 16  2  0  0  0  0
 15 17  1  0  0  0  0
 17 18  1  0  0  0  0
 17 37  1  0  0  0  0
 17 38  1  0  0  0  0
 18 25  2  0  0  0  0
 18 19  1  0  0  0  0
 19 20  1  0  0  0  0
 19 22  2  0  0  0  0
 20 21  1  0  0  0  0
 21 39  1  0  0  0  0
 21 40  1  0  0  0  0
 21 41  1  0  0  0  0
 22 23  1  0  0  0  0
 22 42  1  0  0  0  0
 23 24  2  0  0  0  0
 23 43  1  0  0  0  0
 24 25  1  0  0  0  0
 24 26  1  0  0  0  0
 25 44  1  0  0  0  0
 26 27  1  0  0  0  0
 27 45  1  0  0  0  0
 27 46  1  0  0  0  0
 27 47  1  0  0  0  0
M  END
$$$$
