p38a_2u
 OpenBabel02232411163D
Structure written by MMmdl.
 64 68  0  0  0  0  0  0  0  0999 V2000
   38.2820   36.5300   17.1800 C   0  0  0  0  0  0  0  0  0  0  0  0
   34.5640   35.0900   21.3100 C   0  0  0  0  0  0  0  0  0  0  0  0
   37.5210   36.0830   18.2570 C   0  0  0  0  0  0  0  0  0  0  0  0
   33.9760   39.2020   23.7930 C   0  0  0  0  0  0  0  0  0  0  0  0
   34.6370   37.9690   21.4190 C   0  0  0  0  0  0  0  0  0  0  0  0
   35.0550   37.3020   20.2160 C   0  0  0  0  0  0  0  0  0  0  0  0
   37.6130   36.6640   15.9560 C   0  0  0  0  0  0  0  0  0  0  0  0
   36.2630   36.3520   15.7780 C   0  0  0  0  0  0  0  0  0  0  0  0
   35.5230   35.8920   16.8720 C   0  0  0  0  0  0  0  0  0  0  0  0
   34.2470   37.2070   22.5590 C   0  0  0  0  0  0  0  0  0  0  0  0
   34.6150   39.3850   21.5470 C   0  0  0  0  0  0  0  0  0  0  0  0
   35.0560   35.9500   20.1950 C   0  0  0  0  0  0  0  0  0  0  0  0
   36.1590   35.7470   18.1090 C   0  0  0  0  0  0  0  0  0  0  0  0
   38.0750   35.9700   19.4560 F   0  0  0  0  0  0  0  0  0  0  0  0
   35.4680   35.1200   19.1550 O   0  0  0  0  0  0  0  0  0  0  0  0
   34.3020   40.0140   22.6890 N   0  0  0  0  0  0  0  0  0  0  0  0
   34.4820   33.8820   21.2480 O   0  0  0  0  0  0  0  0  0  0  0  0
   34.1700   35.7990   22.4980 N   0  0  0  0  0  0  0  0  0  0  0  0
   33.9450   37.8210   23.7470 N   0  0  0  0  0  0  0  0  0  0  0  0
   33.6140   39.8250   24.9650 N   0  0  0  0  0  0  0  0  0  0  0  0
   39.3360   36.7990   17.2930 H   0  0  0  0  0  0  0  0  0  0  0  0
   35.3690   37.9130   19.3670 H   0  0  0  0  0  0  0  0  0  0  0  0
   35.7740   36.4750   14.8080 H   0  0  0  0  0  0  0  0  0  0  0  0
   34.4580   35.6660   16.7570 H   0  0  0  0  0  0  0  0  0  0  0  0
   34.8610   40.0150   20.6760 H   0  0  0  0  0  0  0  0  0  0  0  0
   33.7400   40.8500   25.0620 H   0  0  0  0  0  0  0  0  0  0  0  0
   38.2900   37.1530   14.9200 F   0  0  0  0  0  0  0  0  0  0  0  0
   32.3060   39.1470   28.4910 C   0  0  0  0  0  0  0  0  0  0  0  0
   32.4210   39.8310   27.1230 C   0  0  0  0  0  0  0  0  0  0  0  0
   33.4350   39.0690   26.2430 C   0  0  0  0  0  0  0  0  0  0  0  0
   34.7850   38.9210   26.9800 C   0  0  0  0  0  0  0  0  0  0  0  0
   34.5540   38.2810   28.3550 C   0  0  0  0  0  0  0  0  0  0  0  0
   33.5930   39.0270   29.1380 O   0  0  0  0  0  0  0  0  0  0  0  0
   31.8520   38.1340   28.3880 H   0  0  0  0  0  0  0  0  0  0  0  0
   31.7350   39.7790   29.2100 H   0  0  0  0  0  0  0  0  0  0  0  0
   32.7510   40.8880   27.2600 H   0  0  0  0  0  0  0  0  0  0  0  0
   31.4250   39.8360   26.6210 H   0  0  0  0  0  0  0  0  0  0  0  0
   33.0190   38.0490   26.0060 H   0  0  0  0  0  0  0  0  0  0  0  0
   35.4670   38.2670   26.3850 H   0  0  0  0  0  0  0  0  0  0  0  0
   35.2640   39.9210   27.0970 H   0  0  0  0  0  0  0  0  0  0  0  0
   34.1950   37.2310   28.2430 H   0  0  0  0  0  0  0  0  0  0  0  0
   35.4690   38.3390   28.9870 H   0  0  0  0  0  0  0  0  0  0  0  0
   34.2310   33.5770   25.6680 C   0  0  0  0  0  0  0  0  0  0  0  0
   34.7490   34.1790   24.3380 C   0  0  0  0  0  0  0  0  0  0  0  0
   33.6410   35.0390   23.7000 C   0  0  0  0  0  0  0  0  0  0  0  0
   32.4010   34.1990   23.3230 C   0  0  0  0  0  0  0  0  0  0  0  0
   32.2770   32.9590   24.2400 C   0  0  0  0  0  0  0  0  0  0  0  0
   34.3920   34.3270   26.4900 H   0  0  0  0  0  0  0  0  0  0  0  0
   34.8150   32.6450   25.8790 H   0  0  0  0  0  0  0  0  0  0  0  0
   35.0520   33.3600   23.6460 H   0  0  0  0  0  0  0  0  0  0  0  0
   35.6400   34.8070   24.5680 H   0  0  0  0  0  0  0  0  0  0  0  0
   33.3090   35.7950   24.4740 H   0  0  0  0  0  0  0  0  0  0  0  0
   31.4920   34.8380   23.4490 H   0  0  0  0  0  0  0  0  0  0  0  0
   32.4330   33.8450   22.2680 H   0  0  0  0  0  0  0  0  0  0  0  0
   31.1990   32.6570   24.2770 H   0  0  0  0  0  0  0  0  0  0  0  0
   32.8770   32.1120   23.8140 H   0  0  0  0  0  0  0  0  0  0  0  0
   32.7650   33.2960   25.6060 N   0  0  0  0  0  0  0  0  0  0  0  0
   31.8950   32.7540   26.9730 S   0  0  0  0  0  0  0  0  0  0  0  0
   32.5520   33.2710   28.1900 O   0  0  0  0  0  0  0  0  0  0  0  0
   31.8170   31.2800   26.9940 O   0  0  0  0  0  0  0  0  0  0  0  0
   30.3190   33.4380   26.7490 C   0  0  0  0  0  0  0  0  0  0  0  0
   29.6360   32.7760   26.1600 H   0  0  0  0  0  0  0  0  0  0  0  0
   29.8010   33.6490   27.7220 H   0  0  0  0  0  0  0  0  0  0  0  0
   30.3570   34.4250   26.2100 H   0  0  0  0  0  0  0  0  0  0  0  0
  1  3  2  0  0  0  0
  1  7  1  0  0  0  0
  1 21  1  0  0  0  0
  2 12  1  0  0  0  0
  2 17  2  0  0  0  0
  2 18  1  0  0  0  0
  3 13  1  0  0  0  0
  3 14  1  0  0  0  0
  4 16  2  0  0  0  0
  4 19  1  0  0  0  0
  4 20  1  0  0  0  0
  5  6  1  0  0  0  0
  5 10  1  0  0  0  0
  5 11  2  0  0  0  0
  6 12  2  0  0  0  0
  6 22  1  0  0  0  0
  7  8  2  0  0  0  0
  7 27  1  0  0  0  0
  8  9  1  0  0  0  0
  8 23  1  0  0  0  0
  9 13  2  0  0  0  0
  9 24  1  0  0  0  0
 10 18  1  0  0  0  0
 10 19  2  0  0  0  0
 11 16  1  0  0  0  0
 11 25  1  0  0  0  0
 12 15  1  0  0  0  0
 13 15  1  0  0  0  0
 18 45  1  0  0  0  0
 20 26  1  0  0  0  0
 20 30  1  0  0  0  0
 28 29  1  0  0  0  0
 28 33  1  0  0  0  0
 28 34  1  0  0  0  0
 28 35  1  0  0  0  0
 29 30  1  0  0  0  0
 29 36  1  0  0  0  0
 29 37  1  0  0  0  0
 30 31  1  0  0  0  0
 30 38  1  0  0  0  0
 31 32  1  0  0  0  0
 31 39  1  0  0  0  0
 31 40  1  0  0  0  0
 32 33  1  0  0  0  0
 32 41  1  0  0  0  0
 32 42  1  0  0  0  0
 43 44  1  0  0  0  0
 43 48  1  0  0  0  0
 43 49  1  0  0  0  0
 43 57  1  0  0  0  0
 44 45  1  0  0  0  0
 44 50  1  0  0  0  0
 44 51  1  0  0  0  0
 45 46  1  0  0  0  0
 45 52  1  0  0  0  0
 46 47  1  0  0  0  0
 46 53  1  0  0  0  0
 46 54  1  0  0  0  0
 47 55  1  0  0  0  0
 47 56  1  0  0  0  0
 47 57  1  0  0  0  0
 57 58  1  0  0  0  0
 58 59  2  0  0  0  0
 58 60  2  0  0  0  0
 58 61  1  0  0  0  0
 61 62  1  0  0  0  0
 61 63  1  0  0  0  0
 61 64  1  0  0  0  0
M  END
$$$$
