23483
 OpenBabel02232411173D
Structure written by MMmdl.
 57 60  0  0  0  0  0  0  0  0999 V2000
   42.6940   17.7690   12.5490 O   0  0  0  0  0  0  0  0  0  0  0  0
   41.5590   17.4890   12.9550 C   0  0  0  0  0  0  0  0  0  0  0  0
   40.5740   18.2610   12.9420 O   0  5  0  0  0  0  0  0  0  0  0  0
   41.2650   16.0490   13.4910 C   0  0  0  0  0  0  0  0  0  0  0  0
   42.5930   15.4620   13.6820 O   0  0  0  0  0  0  0  0  0  0  0  0
   42.7680   14.7890   14.8500 C   0  0  0  0  0  0  0  0  0  0  0  0
   42.1930   13.4890   15.1360 C   0  0  0  0  0  0  0  0  0  0  0  0
   40.8640   12.7080   14.0140 Br  0  0  0  0  0  0  0  0  0  0  0  0
   42.6730   12.8910   16.2700 C   0  0  0  0  0  0  0  0  0  0  0  0
   42.3970   11.6040   16.8750 C   0  0  0  0  0  0  0  0  0  0  0  0
   43.4400   10.8540   17.4670 C   0  0  0  0  0  0  0  0  0  0  0  0
   43.1730    9.6170   18.0440 C   0  0  0  0  0  0  0  0  0  0  0  0
   41.8830    9.0730   18.0340 C   0  0  0  0  0  0  0  0  0  0  0  0
   40.8440    9.8030   17.4420 C   0  0  0  0  0  0  0  0  0  0  0  0
   39.5300    9.2260   17.2880 N   0  0  0  0  0  0  0  0  0  0  0  0
   38.7200    8.8990   18.5010 C   0  0  0  0  0  0  0  0  0  0  0  0
   38.9240    7.4210   18.9040 C   0  0  0  0  0  0  0  0  0  0  0  0
   38.0400    7.0580   20.1160 C   0  0  0  0  0  0  0  0  0  0  0  0
   38.3340    7.9770   21.2600 N   0  0  0  0  0  0  0  0  0  0  0  0
   37.8620    7.4790   22.8360 S   0  0  0  0  0  0  0  0  0  0  0  0
   36.5440    8.0330   23.2060 O   0  0  0  0  0  0  0  0  0  0  0  0
   37.9170    6.0030   22.9270 O   0  0  0  0  0  0  0  0  0  0  0  0
   39.1060    8.1380   23.8730 C   0  0  0  0  0  0  0  0  0  0  0  0
   38.7630    8.8650   25.0180 C   0  0  0  0  0  0  0  0  0  0  0  0
   39.7660    9.3210   25.8810 C   0  0  0  0  0  0  0  0  0  0  0  0
   41.1110    9.0560   25.6010 C   0  0  0  0  0  0  0  0  0  0  0  0
   41.4520    8.3450   24.4470 C   0  0  0  0  0  0  0  0  0  0  0  0
   40.4530    7.8880   23.5800 C   0  0  0  0  0  0  0  0  0  0  0  0
   38.1160    9.4190   20.9140 C   0  0  0  0  0  0  0  0  0  0  0  0
   39.0010    9.8150   19.7160 C   0  0  0  0  0  0  0  0  0  0  0  0
   41.0960   11.0790   16.8960 C   0  0  0  0  0  0  0  0  0  0  0  0
   43.8460   13.9610   17.0060 S   0  0  0  0  0  0  0  0  0  0  0  0
   43.6580   15.2090   15.8050 C   0  0  0  0  0  0  0  0  0  0  0  0
   44.4480   16.5120   15.9380 C   0  0  0  0  0  0  0  0  0  0  0  0
   45.5820   16.3780   16.4510 O   0  0  0  0  0  0  0  0  0  0  0  0
   43.9540   17.5620   15.5370 O   0  5  0  0  0  0  0  0  0  0  0  0
   40.7640   15.4120   12.7310 H   0  0  0  0  0  0  0  0  0  0  0  0
   40.6730   16.0550   14.4310 H   0  0  0  0  0  0  0  0  0  0  0  0
   44.4660   11.2260   17.4800 H   0  0  0  0  0  0  0  0  0  0  0  0
   43.9750    9.0420   18.5150 H   0  0  0  0  0  0  0  0  0  0  0  0
   41.7150    8.0900   18.4680 H   0  0  0  0  0  0  0  0  0  0  0  0
   38.9550    9.7620   16.6180 H   0  0  0  0  0  0  0  0  0  0  0  0
   37.6350    9.0180   18.2110 H   0  0  0  0  0  0  0  0  0  0  0  0
   38.6440    6.7560   18.0500 H   0  0  0  0  0  0  0  0  0  0  0  0
   39.9920    7.2210   19.1570 H   0  0  0  0  0  0  0  0  0  0  0  0
   36.9580    7.1090   19.8140 H   0  0  0  0  0  0  0  0  0  0  0  0
   38.2820    6.0040   20.4210 H   0  0  0  0  0  0  0  0  0  0  0  0
   37.7180    9.0960   25.2650 H   0  0  0  0  0  0  0  0  0  0  0  0
   39.5000    9.8870   26.7790 H   0  0  0  0  0  0  0  0  0  0  0  0
   41.8920    9.4080   26.2830 H   0  0  0  0  0  0  0  0  0  0  0  0
   42.5060    8.1450   24.2230 H   0  0  0  0  0  0  0  0  0  0  0  0
   40.7500    7.3410   22.6740 H   0  0  0  0  0  0  0  0  0  0  0  0
   37.0380    9.6190   20.6640 H   0  0  0  0  0  0  0  0  0  0  0  0
   38.4070   10.0490   21.7970 H   0  0  0  0  0  0  0  0  0  0  0  0
   40.0770    9.7290   20.0100 H   0  0  0  0  0  0  0  0  0  0  0  0
   38.7830   10.8780   19.4530 H   0  0  0  0  0  0  0  0  0  0  0  0
   40.2580   11.6530   16.4910 H   0  0  0  0  0  0  0  0  0  0  0  0
  1  2  2  0  0  0  0
  2  3  1  0  0  0  0
  2  4  1  0  0  0  0
  4  5  1  0  0  0  0
  4 37  1  0  0  0  0
  4 38  1  0  0  0  0
  5  6  1  0  0  0  0
  6 33  2  0  0  0  0
  6  7  1  0  0  0  0
  7  8  1  0  0  0  0
  7  9  2  0  0  0  0
  9 10  1  0  0  0  0
  9 32  1  0  0  0  0
 10 31  2  0  0  0  0
 10 11  1  0  0  0  0
 11 12  2  0  0  0  0
 11 39  1  0  0  0  0
 12 13  1  0  0  0  0
 12 40  1  0  0  0  0
 13 14  2  0  0  0  0
 13 41  1  0  0  0  0
 14 15  1  0  0  0  0
 14 31  1  0  0  0  0
 15 16  1  0  0  0  0
 15 42  1  0  0  0  0
 16 30  1  0  0  0  0
 16 17  1  0  0  0  0
 16 43  1  0  0  0  0
 17 18  1  0  0  0  0
 17 44  1  0  0  0  0
 17 45  1  0  0  0  0
 18 19  1  0  0  0  0
 18 46  1  0  0  0  0
 18 47  1  0  0  0  0
 19 20  1  0  0  0  0
 19 29  1  0  0  0  0
 20 21  2  0  0  0  0
 20 22  2  0  0  0  0
 20 23  1  0  0  0  0
 23 28  2  0  0  0  0
 23 24  1  0  0  0  0
 24 25  2  0  0  0  0
 24 48  1  0  0  0  0
 25 26  1  0  0  0  0
 25 49  1  0  0  0  0
 26 27  2  0  0  0  0
 26 50  1  0  0  0  0
 27 28  1  0  0  0  0
 27 51  1  0  0  0  0
 28 52  1  0  0  0  0
 29 30  1  0  0  0  0
 29 53  1  0  0  0  0
 29 54  1  0  0  0  0
 30 55  1  0  0  0  0
 30 56  1  0  0  0  0
 31 57  1  0  0  0  0
 32 33  1  0  0  0  0
 33 34  1  0  0  0  0
 34 35  2  0  0  0  0
 34 36  1  0  0  0  0
M  CHG  2   3  -1  36  -1
M  END
$$$$
