p38a_2l
 OpenBabel02232411163D
Structure written by MMmdl.
 49 52  0  0  0  0  0  0  0  0999 V2000
   38.3140   36.5810   17.1090 C   0  0  0  0  0  0  0  0  0  0  0  0
   34.5570   35.0170   21.1230 C   0  0  0  0  0  0  0  0  0  0  0  0
   37.5240   36.1110   18.1550 C   0  0  0  0  0  0  0  0  0  0  0  0
   33.9450   39.0020   23.8010 C   0  0  0  0  0  0  0  0  0  0  0  0
   34.6800   37.8850   21.3870 C   0  0  0  0  0  0  0  0  0  0  0  0
   35.0950   37.2720   20.1540 C   0  0  0  0  0  0  0  0  0  0  0  0
   37.6750   36.7490   15.8730 C   0  0  0  0  0  0  0  0  0  0  0  0
   36.3290   36.4470   15.6530 C   0  0  0  0  0  0  0  0  0  0  0  0
   35.5610   35.9600   16.7160 C   0  0  0  0  0  0  0  0  0  0  0  0
   34.2600   37.0730   22.4830 C   0  0  0  0  0  0  0  0  0  0  0  0
   34.6780   39.2910   21.5920 C   0  0  0  0  0  0  0  0  0  0  0  0
   35.0610   35.9240   20.0560 C   0  0  0  0  0  0  0  0  0  0  0  0
   36.1650   35.7840   17.9640 C   0  0  0  0  0  0  0  0  0  0  0  0
   38.0470   35.9680   19.3660 F   0  0  0  0  0  0  0  0  0  0  0  0
   35.4370   35.1370   18.9690 O   0  0  0  0  0  0  0  0  0  0  0  0
   34.3320   39.8650   22.7550 N   0  0  0  0  0  0  0  0  0  0  0  0
   34.4350   33.8160   21.0180 O   0  0  0  0  0  0  0  0  0  0  0  0
   34.2270   35.6720   22.3600 N   0  0  0  0  0  0  0  0  0  0  0  0
   33.8990   37.6250   23.6830 N   0  0  0  0  0  0  0  0  0  0  0  0
   33.5660   39.5640   24.9960 N   0  0  0  0  0  0  0  0  0  0  0  0
   39.3650   36.8430   17.2550 H   0  0  0  0  0  0  0  0  0  0  0  0
   35.4300   37.9200   19.3410 H   0  0  0  0  0  0  0  0  0  0  0  0
   35.8650   36.6010   14.6770 H   0  0  0  0  0  0  0  0  0  0  0  0
   34.5000   35.7360   16.5640 H   0  0  0  0  0  0  0  0  0  0  0  0
   34.9660   39.9650   20.7670 H   0  0  0  0  0  0  0  0  0  0  0  0
   33.6380   40.5880   25.1360 H   0  0  0  0  0  0  0  0  0  0  0  0
   38.3770   37.2610   14.8660 F   0  0  0  0  0  0  0  0  0  0  0  0
   33.0610   40.4410   28.0730 C   0  0  0  0  0  0  0  0  0  0  0  0
   32.2390   39.5970   27.0920 C   0  0  0  0  0  0  0  0  0  0  0  0
   33.1000   38.7290   26.1510 C   0  0  0  0  0  0  0  0  0  0  0  0
   34.2790   38.0740   26.9020 C   0  0  0  0  0  0  0  0  0  0  0  0
   35.0080   39.0580   27.8170 C   0  0  0  0  0  0  0  0  0  0  0  0
   34.0860   39.6790   28.7430 O   0  0  0  0  0  0  0  0  0  0  0  0
   32.4310   40.7940   28.9220 H   0  0  0  0  0  0  0  0  0  0  0  0
   33.5450   41.2950   27.5500 H   0  0  0  0  0  0  0  0  0  0  0  0
   31.5940   40.2790   26.4850 H   0  0  0  0  0  0  0  0  0  0  0  0
   31.5660   38.9080   27.6620 H   0  0  0  0  0  0  0  0  0  0  0  0
   32.4450   37.9070   25.7340 H   0  0  0  0  0  0  0  0  0  0  0  0
   33.8620   37.2290   27.5080 H   0  0  0  0  0  0  0  0  0  0  0  0
   35.0030   37.6330   26.1750 H   0  0  0  0  0  0  0  0  0  0  0  0
   35.7130   38.5330   28.5030 H   0  0  0  0  0  0  0  0  0  0  0  0
   35.5180   39.8540   27.2290 H   0  0  0  0  0  0  0  0  0  0  0  0
   33.7120   34.8330   23.4970 C   0  0  0  0  0  0  0  0  0  0  0  0
   34.1940   33.8190   23.4250 H   0  0  0  0  0  0  0  0  0  0  0  0
   34.0200   35.3110   24.4710 H   0  0  0  0  0  0  0  0  0  0  0  0
   32.1920   34.6970   23.4490 C   0  0  0  0  0  0  0  0  0  0  0  0
   31.6980   35.6900   23.5620 H   0  0  0  0  0  0  0  0  0  0  0  0
   31.8470   34.2280   22.5020 H   0  0  0  0  0  0  0  0  0  0  0  0
   31.8600   34.0550   24.3020 H   0  0  0  0  0  0  0  0  0  0  0  0
  1  3  2  0  0  0  0
  1  7  1  0  0  0  0
  1 21  1  0  0  0  0
  2 12  1  0  0  0  0
  2 17  2  0  0  0  0
  2 18  1  0  0  0  0
  3 13  1  0  0  0  0
  3 14  1  0  0  0  0
  4 16  2  0  0  0  0
  4 19  1  0  0  0  0
  4 20  1  0  0  0  0
  5  6  1  0  0  0  0
  5 10  1  0  0  0  0
  5 11  2  0  0  0  0
  6 12  2  0  0  0  0
  6 22  1  0  0  0  0
  7  8  2  0  0  0  0
  7 27  1  0  0  0  0
  8  9  1  0  0  0  0
  8 23  1  0  0  0  0
  9 13  2  0  0  0  0
  9 24  1  0  0  0  0
 10 18  1  0  0  0  0
 10 19  2  0  0  0  0
 11 16  1  0  0  0  0
 11 25  1  0  0  0  0
 12 15  1  0  0  0  0
 13 15  1  0  0  0  0
 18 43  1  0  0  0  0
 20 26  1  0  0  0  0
 20 30  1  0  0  0  0
 28 29  1  0  0  0  0
 28 33  1  0  0  0  0
 28 34  1  0  0  0  0
 28 35  1  0  0  0  0
 29 30  1  0  0  0  0
 29 36  1  0  0  0  0
 29 37  1  0  0  0  0
 30 31  1  0  0  0  0
 30 38  1  0  0  0  0
 31 32  1  0  0  0  0
 31 39  1  0  0  0  0
 31 40  1  0  0  0  0
 32 33  1  0  0  0  0
 32 41  1  0  0  0  0
 32 42  1  0  0  0  0
 43 44  1  0  0  0  0
 43 45  1  0  0  0  0
 43 46  1  0  0  0  0
 46 47  1  0  0  0  0
 46 48  1  0  0  0  0
 46 49  1  0  0  0  0
M  END
$$$$
