p38a_2x
 OpenBabel02232411163D
Structure written by MMmdl.
 43 46  0  0  1  0  0  0  0  0999 V2000
   38.2860   36.5560   17.1250 C   0  0  0  0  0  0  0  0  0  0  0  0
   34.5500   35.0490   21.1420 C   0  0  0  0  0  0  0  0  0  0  0  0
   37.4840   36.0930   18.1640 C   0  0  0  0  0  0  0  0  0  0  0  0
   33.9630   39.0690   23.7660 C   0  0  0  0  0  0  0  0  0  0  0  0
   34.6190   37.9270   21.3460 C   0  0  0  0  0  0  0  0  0  0  0  0
   35.0120   37.2950   20.1150 C   0  0  0  0  0  0  0  0  0  0  0  0
   37.6570   36.7340   15.8850 C   0  0  0  0  0  0  0  0  0  0  0  0
   36.3100   36.4480   15.6560 C   0  0  0  0  0  0  0  0  0  0  0  0
   35.5280   35.9680   16.7120 C   0  0  0  0  0  0  0  0  0  0  0  0
   34.2700   37.1260   22.4750 C   0  0  0  0  0  0  0  0  0  0  0  0
   34.5840   39.3360   21.5220 C   0  0  0  0  0  0  0  0  0  0  0  0
   35.0060   35.9440   20.0460 C   0  0  0  0  0  0  0  0  0  0  0  0
   36.1220   35.7820   17.9640 C   0  0  0  0  0  0  0  0  0  0  0  0
   33.8820   34.9220   23.5740 C   0  0  0  0  0  0  0  0  0  0  0  0
   37.9970   35.9400   19.3780 F   0  0  0  0  0  0  0  0  0  0  0  0
   35.3810   35.1460   18.9670 O   0  0  0  0  0  0  0  0  0  0  0  0
   34.2740   39.9200   22.6910 N   0  0  0  0  0  0  0  0  0  0  0  0
   34.4290   33.8460   21.0650 O   0  0  0  0  0  0  0  0  0  0  0  0
   34.2420   35.7270   22.3730 N   0  0  0  0  0  0  0  0  0  0  0  0
   33.9560   37.6920   23.6860 N   0  0  0  0  0  0  0  0  0  0  0  0
   33.5740   39.6570   24.9570 N   0  0  0  0  0  0  0  0  0  0  0  0
   39.3400   36.8060   17.2780 H   0  0  0  0  0  0  0  0  0  0  0  0
   35.3130   37.9330   19.2810 H   0  0  0  0  0  0  0  0  0  0  0  0
   35.8540   36.6090   14.6770 H   0  0  0  0  0  0  0  0  0  0  0  0
   34.4660   35.7560   16.5540 H   0  0  0  0  0  0  0  0  0  0  0  0
   34.8180   40.0020   20.6740 H   0  0  0  0  0  0  0  0  0  0  0  0
   34.5700   35.1740   24.4260 H   0  0  0  0  0  0  0  0  0  0  0  0
   32.8290   35.1530   23.8890 H   0  0  0  0  0  0  0  0  0  0  0  0
   33.9670   33.8270   23.3470 H   0  0  0  0  0  0  0  0  0  0  0  0
   33.7280   40.6780   25.0820 H   0  0  0  0  0  0  0  0  0  0  0  0
   38.3720   37.2420   14.8840 F   0  0  0  0  0  0  0  0  0  0  0  0
   33.4310   39.3790   28.5470 O   0  0  0  0  0  0  0  0  0  0  0  0
   34.8150   39.0390   28.2450 C   0  0  0  0  0  0  0  0  0  0  0  0
   34.8400   38.4800   26.8160 C   0  0  0  0  0  0  0  0  0  0  0  0
   33.4650   38.8490   26.2010 C   0  0  1  0  0  0  0  0  0  0  0  0
   32.7410   39.6640   27.3070 C   0  0  0  0  0  0  0  0  0  0  0  0
   35.0870   38.2890   29.0170 H   0  0  0  0  0  0  0  0  0  0  0  0
   35.4170   39.9700   28.3390 H   0  0  0  0  0  0  0  0  0  0  0  0
   35.6820   38.9180   26.2360 H   0  0  0  0  0  0  0  0  0  0  0  0
   34.9680   37.3710   26.8190 H   0  0  0  0  0  0  0  0  0  0  0  0
   32.8840   37.9150   25.9620 H   0  0  0  0  0  0  0  0  0  0  0  0
   31.6990   39.3190   27.4770 H   0  0  0  0  0  0  0  0  0  0  0  0
   32.7910   40.7620   27.1340 H   0  0  0  0  0  0  0  0  0  0  0  0
  1  3  2  0  0  0  0
  1  7  1  0  0  0  0
  1 22  1  0  0  0  0
  2 12  1  0  0  0  0
  2 18  2  0  0  0  0
  2 19  1  0  0  0  0
  3 13  1  0  0  0  0
  3 15  1  0  0  0  0
  4 17  2  0  0  0  0
  4 20  1  0  0  0  0
  4 21  1  0  0  0  0
  5  6  1  0  0  0  0
  5 10  1  0  0  0  0
  5 11  2  0  0  0  0
  6 12  2  0  0  0  0
  6 23  1  0  0  0  0
  7  8  2  0  0  0  0
  7 31  1  0  0  0  0
  8  9  1  0  0  0  0
  8 24  1  0  0  0  0
  9 13  2  0  0  0  0
  9 25  1  0  0  0  0
 10 19  1  0  0  0  0
 10 20  2  0  0  0  0
 11 17  1  0  0  0  0
 11 26  1  0  0  0  0
 12 16  1  0  0  0  0
 13 16  1  0  0  0  0
 14 19  1  0  0  0  0
 14 27  1  0  0  0  0
 14 28  1  0  0  0  0
 14 29  1  0  0  0  0
 21 30  1  0  0  0  0
 21 35  1  0  0  0  0
 32 33  1  0  0  0  0
 32 36  1  0  0  0  0
 33 34  1  0  0  0  0
 33 37  1  0  0  0  0
 33 38  1  0  0  0  0
 34 35  1  0  0  0  0
 34 39  1  0  0  0  0
 34 40  1  0  0  0  0
 35 36  1  0  0  0  0
 35 41  1  1  0  0  0
 36 42  1  0  0  0  0
 36 43  1  0  0  0  0
M  END
$$$$
