18639-1
 OpenBabel02232411163D
Structure written by MMmdl.
 48 49  0  0  0  0  0  0  0  0999 V2000
   24.4230   10.9240   30.7400 C   0  0  0  0  0  0  0  0  0  0  0  0
   23.0950   11.2720   30.1020 C   0  0  0  0  0  0  0  0  0  0  0  0
   22.0200   11.3310   31.1160 O   0  0  0  0  0  0  0  0  0  0  0  0
   21.4420   10.1790   31.5280 C   0  0  0  0  0  0  0  0  0  0  0  0
   21.9270    8.9920   31.0970 N   0  0  0  0  0  0  0  0  0  0  0  0
   21.2390    7.8470   31.4680 C   0  0  0  0  0  0  0  0  0  0  0  0
   20.1010    7.8760   32.2670 C   0  0  0  0  0  0  0  0  0  0  0  0
   19.6070    9.1260   32.7270 C   0  0  0  0  0  0  0  0  0  0  0  0
   18.4710    9.1610   33.4940 N   0  0  0  0  0  0  0  0  0  0  0  0
   20.2930   10.3280   32.3620 C   0  0  0  0  0  0  0  0  0  0  0  0
   19.8780   11.6250   32.7320 C   0  0  0  0  0  0  0  0  0  0  0  0
   19.5900   12.7170   32.9970 N   0  0  0  0  0  0  0  0  0  0  0  0
   21.8340    6.6840   30.9250 N   0  0  0  0  0  0  0  0  0  0  0  0
   21.2720    5.3910   30.8730 C   0  0  0  0  0  0  0  0  0  0  0  0
   20.1980    5.1160   31.3630 O   0  0  0  0  0  0  0  0  0  0  0  0
   22.1110    4.4030   30.0700 C   0  0  0  0  0  0  0  0  0  0  0  0
   23.4870    4.1610   30.6180 C   0  0  0  0  0  0  0  0  0  0  0  0
   24.5660    5.0420   30.2900 C   0  0  0  0  0  0  0  0  0  0  0  0
   24.1830    6.0900   29.4630 O   0  0  0  0  0  0  0  0  0  0  0  0
   25.1230    7.1860   29.2820 C   0  0  0  0  0  0  0  0  0  0  0  0
   25.8560    4.8160   30.7440 C   0  0  0  0  0  0  0  0  0  0  0  0
   26.1140    3.7020   31.5720 C   0  0  0  0  0  0  0  0  0  0  0  0
   27.4760    3.4670   32.0570 N   0  3  0  0  0  0  0  0  0  0  0  0
   27.6360    2.6570   32.9580 O   0  5  0  0  0  0  0  0  0  0  0  0
   28.3980    4.0860   31.5390 O   0  0  0  0  0  0  0  0  0  0  0  0
   25.0590    2.8210   31.9050 C   0  0  0  0  0  0  0  0  0  0  0  0
   23.7540    3.0580   31.4130 C   0  0  0  0  0  0  0  0  0  0  0  0
   25.4320    1.7840   32.7070 O   0  0  0  0  0  0  0  0  0  0  0  0
   24.4540    0.7310   32.9520 C   0  0  0  0  0  0  0  0  0  0  0  0
   25.2140   10.8940   29.9490 H   0  0  0  0  0  0  0  0  0  0  0  0
   24.7130   11.6800   31.5000 H   0  0  0  0  0  0  0  0  0  0  0  0
   24.3880    9.9180   31.2200 H   0  0  0  0  0  0  0  0  0  0  0  0
   23.0620   12.3290   29.7410 H   0  0  0  0  0  0  0  0  0  0  0  0
   22.8100   10.5520   29.3030 H   0  0  0  0  0  0  0  0  0  0  0  0
   19.5730    6.9570   32.5290 H   0  0  0  0  0  0  0  0  0  0  0  0
   17.9730    8.2850   33.7480 H   0  0  0  0  0  0  0  0  0  0  0  0
   18.0560   10.0440   33.7910 H   0  0  0  0  0  0  0  0  0  0  0  0
   22.7420    6.8460   30.4190 H   0  0  0  0  0  0  0  0  0  0  0  0
   21.5540    3.4280   30.0210 H   0  0  0  0  0  0  0  0  0  0  0  0
   22.2060    4.8070   29.0220 H   0  0  0  0  0  0  0  0  0  0  0  0
   25.4850    7.5630   30.2620 H   0  0  0  0  0  0  0  0  0  0  0  0
   25.9520    6.8440   28.6250 H   0  0  0  0  0  0  0  0  0  0  0  0
   24.4800    7.9420   28.7740 H   0  0  0  0  0  0  0  0  0  0  0  0
   26.6840    5.4750   30.4610 H   0  0  0  0  0  0  0  0  0  0  0  0
   22.9510    2.3580   31.6550 H   0  0  0  0  0  0  0  0  0  0  0  0
   25.0590    0.0020   33.5430 H   0  0  0  0  0  0  0  0  0  0  0  0
   23.6070    1.1270   33.5530 H   0  0  0  0  0  0  0  0  0  0  0  0
   24.1220    0.2850   31.9890 H   0  0  0  0  0  0  0  0  0  0  0  0
  1  2  1  0  0  0  0
  1 30  1  0  0  0  0
  1 31  1  0  0  0  0
  1 32  1  0  0  0  0
  2  3  1  0  0  0  0
  2 33  1  0  0  0  0
  2 34  1  0  0  0  0
  3  4  1  0  0  0  0
  4 10  2  0  0  0  0
  4  5  1  0  0  0  0
  5  6  2  0  0  0  0
  6  7  1  0  0  0  0
  6 13  1  0  0  0  0
  7  8  2  0  0  0  0
  7 35  1  0  0  0  0
  8  9  1  0  0  0  0
  8 10  1  0  0  0  0
  9 36  1  0  0  0  0
  9 37  1  0  0  0  0
 10 11  1  0  0  0  0
 11 12  3  0  0  0  0
 13 14  1  0  0  0  0
 13 38  1  0  0  0  0
 14 15  2  0  0  0  0
 14 16  1  0  0  0  0
 16 17  1  0  0  0  0
 16 39  1  0  0  0  0
 16 40  1  0  0  0  0
 17 27  2  0  0  0  0
 17 18  1  0  0  0  0
 18 19  1  0  0  0  0
 18 21  2  0  0  0  0
 19 20  1  0  0  0  0
 20 41  1  0  0  0  0
 20 42  1  0  0  0  0
 20 43  1  0  0  0  0
 21 22  1  0  0  0  0
 21 44  1  0  0  0  0
 22 23  1  0  0  0  0
 22 26  2  0  0  0  0
 23 24  1  0  0  0  0
 23 25  2  0  0  0  0
 26 27  1  0  0  0  0
 26 28  1  0  0  0  0
 27 45  1  0  0  0  0
 28 29  1  0  0  0  0
 29 46  1  0  0  0  0
 29 47  1  0  0  0  0
 29 48  1  0  0  0  0
M  CHG  2  23   1  24  -1
M  END
$$$$
