28
 OpenBabel02232411153D
Structure written by MMmdl.
 53 56  0  0  0  0  0  0  0  0999 V2000
    1.7830   28.9430    6.7650 C   0  0  0  0  0  0  0  0  0  0  0  0
   -1.6450   31.5640    8.0040 C   0  0  0  0  0  0  0  0  0  0  0  0
   -0.1680   26.0770    8.9020 C   0  0  0  0  0  0  0  0  0  0  0  0
   -0.9440   25.3640   10.0170 C   0  0  0  0  0  0  0  0  0  0  0  0
   -0.7740   23.8440    9.7910 C   0  0  0  0  0  0  0  0  0  0  0  0
   -1.4110   23.0340   10.9280 C   0  0  0  0  0  0  0  0  0  0  0  0
   -0.8750   23.4650   12.3020 C   0  0  0  0  0  0  0  0  0  0  0  0
   -1.0800   24.9720   12.5270 C   0  0  0  0  0  0  0  0  0  0  0  0
   -0.4310   25.7950   11.4050 C   0  0  0  0  0  0  0  0  0  0  0  0
    5.4060   25.8100    5.6080 C   0  0  0  0  0  0  0  0  0  0  0  0
    5.2960   25.0450    6.7750 C   0  0  0  0  0  0  0  0  0  0  0  0
    4.4000   25.4510    7.7760 C   0  0  0  0  0  0  0  0  0  0  0  0
    3.6220   26.5970    7.6220 C   0  0  0  0  0  0  0  0  0  0  0  0
    1.0790   27.9900    7.4930 N   0  0  0  0  0  0  0  0  0  0  0  0
   -0.1030   28.3290    8.0740 C   0  0  0  0  0  0  0  0  0  0  0  0
   -0.7750   27.4320    8.8090 O   0  0  0  0  0  0  0  0  0  0  0  0
   -0.6170   29.6430    7.9190 C   0  0  0  0  0  0  0  0  0  0  0  0
   -1.7520   30.2960    8.4110 N   0  0  0  0  0  0  0  0  0  0  0  0
   -0.4440   31.7930    7.2450 N   0  0  0  0  0  0  0  0  0  0  0  0
    0.2100   30.5690    7.1640 C   0  0  0  0  0  0  0  0  0  0  0  0
    1.3980   30.2510    6.5490 N   0  0  0  0  0  0  0  0  0  0  0  0
    2.9850   28.5380    6.1760 N   0  0  0  0  0  0  0  0  0  0  0  0
    3.7170   27.3470    6.4370 C   0  0  0  0  0  0  0  0  0  0  0  0
    4.6330   26.9490    5.4330 C   0  0  0  0  0  0  0  0  0  0  0  0
   -2.3400   32.3710    8.2140 H   0  0  0  0  0  0  0  0  0  0  0  0
    0.9090   26.1810    9.1570 H   0  0  0  0  0  0  0  0  0  0  0  0
   -0.3230   25.6120    7.9080 H   0  0  0  0  0  0  0  0  0  0  0  0
   -2.0280   25.6230    9.9510 H   0  0  0  0  0  0  0  0  0  0  0  0
   -1.2560   23.5600    8.8290 H   0  0  0  0  0  0  0  0  0  0  0  0
    0.3150   23.5970    9.7390 H   0  0  0  0  0  0  0  0  0  0  0  0
   -2.5120   23.1880   10.9110 H   0  0  0  0  0  0  0  0  0  0  0  0
   -1.1970   21.9500   10.7780 H   0  0  0  0  0  0  0  0  0  0  0  0
   -1.4070   22.8970   13.1000 H   0  0  0  0  0  0  0  0  0  0  0  0
    0.2130   23.2310   12.3620 H   0  0  0  0  0  0  0  0  0  0  0  0
   -2.1700   25.1950   12.5830 H   0  0  0  0  0  0  0  0  0  0  0  0
   -0.6170   25.2630   13.4980 H   0  0  0  0  0  0  0  0  0  0  0  0
    0.6760   25.6560   11.4610 H   0  0  0  0  0  0  0  0  0  0  0  0
   -0.6580   26.8740   11.5630 H   0  0  0  0  0  0  0  0  0  0  0  0
    6.1030   25.5420    4.8060 H   0  0  0  0  0  0  0  0  0  0  0  0
    4.3020   24.8770    8.7080 H   0  0  0  0  0  0  0  0  0  0  0  0
    2.9460   26.8960    8.4250 H   0  0  0  0  0  0  0  0  0  0  0  0
   -0.1740   32.6720    6.7780 H   0  0  0  0  0  0  0  0  0  0  0  0
    3.4710   29.2050    5.5270 H   0  0  0  0  0  0  0  0  0  0  0  0
    4.7450   27.5350    4.5210 H   0  0  0  0  0  0  0  0  0  0  0  0
    6.2650   23.6510    7.0640 S   0  0  0  0  0  0  0  0  0  0  0  0
    6.9880   23.9090    8.3060 O   0  0  0  0  0  0  0  0  0  0  0  0
    5.4590   22.4290    6.9990 O   0  0  0  0  0  0  0  0  0  0  0  0
    7.4680   23.5180    5.8600 N   0  0  0  0  0  0  0  0  0  0  0  0
    8.1030   24.3170    5.6950 H   0  0  0  0  0  0  0  0  0  0  0  0
    7.1800   22.8040    4.5930 C   0  0  0  0  0  0  0  0  0  0  0  0
    8.1510   22.6330    4.0490 H   0  0  0  0  0  0  0  0  0  0  0  0
    6.7260   21.8000    4.7950 H   0  0  0  0  0  0  0  0  0  0  0  0
    6.5030   23.3850    3.9120 H   0  0  0  0  0  0  0  0  0  0  0  0
  1 14  2  0  0  0  0
  1 21  1  0  0  0  0
  1 22  1  0  0  0  0
  2 18  2  0  0  0  0
  2 19  1  0  0  0  0
  2 25  1  0  0  0  0
  3  4  1  0  0  0  0
  3 16  1  0  0  0  0
  3 26  1  0  0  0  0
  3 27  1  0  0  0  0
  4  5  1  0  0  0  0
  4  9  1  0  0  0  0
  4 28  1  0  0  0  0
  5  6  1  0  0  0  0
  5 29  1  0  0  0  0
  5 30  1  0  0  0  0
  6  7  1  0  0  0  0
  6 31  1  0  0  0  0
  6 32  1  0  0  0  0
  7  8  1  0  0  0  0
  7 33  1  0  0  0  0
  7 34  1  0  0  0  0
  8  9  1  0  0  0  0
  8 35  1  0  0  0  0
  8 36  1  0  0  0  0
  9 37  1  0  0  0  0
  9 38  1  0  0  0  0
 10 11  2  0  0  0  0
 10 24  1  0  0  0  0
 10 39  1  0  0  0  0
 11 12  1  0  0  0  0
 11 45  1  0  0  0  0
 12 13  2  0  0  0  0
 12 40  1  0  0  0  0
 13 23  1  0  0  0  0
 13 41  1  0  0  0  0
 14 15  1  0  0  0  0
 15 16  1  0  0  0  0
 15 17  2  0  0  0  0
 17 18  1  0  0  0  0
 17 20  1  0  0  0  0
 19 20  1  0  0  0  0
 19 42  1  0  0  0  0
 20 21  2  0  0  0  0
 22 23  1  0  0  0  0
 22 43  1  0  0  0  0
 23 24  2  0  0  0  0
 24 44  1  0  0  0  0
 45 46  2  0  0  0  0
 45 47  2  0  0  0  0
 45 48  1  0  0  0  0
 48 49  1  0  0  0  0
 48 50  1  0  0  0  0
 50 51  1  0  0  0  0
 50 52  1  0  0  0  0
 50 53  1  0  0  0  0
M  END
$$$$
