p38a_2o
 OpenBabel02232411163D
Structure written by MMmdl.
 55 58  0  0  0  0  0  0  0  0999 V2000
   36.3130   35.9300   15.9550 C   0  0  0  0  0  0  0  0  0  0  0  0
   34.5660   35.1060   21.5780 C   0  0  0  0  0  0  0  0  0  0  0  0
   35.6210   35.5050   17.0860 C   0  0  0  0  0  0  0  0  0  0  0  0
   34.1810   39.2990   23.9620 C   0  0  0  0  0  0  0  0  0  0  0  0
   34.7620   37.9780   21.6120 C   0  0  0  0  0  0  0  0  0  0  0  0
   35.1380   37.2610   20.4230 C   0  0  0  0  0  0  0  0  0  0  0  0
   37.6080   36.4210   16.1630 C   0  0  0  0  0  0  0  0  0  0  0  0
   38.2270   36.4590   17.4160 C   0  0  0  0  0  0  0  0  0  0  0  0
   37.5000   36.0550   18.5410 C   0  0  0  0  0  0  0  0  0  0  0  0
   34.4160   37.2640   22.7970 C   0  0  0  0  0  0  0  0  0  0  0  0
   34.7300   39.3960   21.6850 C   0  0  0  0  0  0  0  0  0  0  0  0
   35.0830   35.9100   20.4360 C   0  0  0  0  0  0  0  0  0  0  0  0
   36.1950   35.5830   18.3720 C   0  0  0  0  0  0  0  0  0  0  0  0
   34.4000   34.9980   16.9780 F   0  0  0  0  0  0  0  0  0  0  0  0
   35.4280   35.0330   19.4090 O   0  0  0  0  0  0  0  0  0  0  0  0
   34.4480   40.0680   22.8130 N   0  0  0  0  0  0  0  0  0  0  0  0
   34.3560   33.9140   21.5570 O   0  0  0  0  0  0  0  0  0  0  0  0
   34.3250   35.8600   22.7860 N   0  0  0  0  0  0  0  0  0  0  0  0
   34.1620   37.9180   23.9750 N   0  0  0  0  0  0  0  0  0  0  0  0
   33.8610   39.9710   25.1190 N   0  0  0  0  0  0  0  0  0  0  0  0
   35.8610   35.9090   14.9600 H   0  0  0  0  0  0  0  0  0  0  0  0
   35.4740   37.8400   19.5590 H   0  0  0  0  0  0  0  0  0  0  0  0
   39.2510   36.8280   17.5220 H   0  0  0  0  0  0  0  0  0  0  0  0
   37.9460   36.1360   19.5350 H   0  0  0  0  0  0  0  0  0  0  0  0
   34.9400   39.9960   20.7840 H   0  0  0  0  0  0  0  0  0  0  0  0
   33.9500   41.0040   25.1580 H   0  0  0  0  0  0  0  0  0  0  0  0
   38.2670   36.9080   15.1140 F   0  0  0  0  0  0  0  0  0  0  0  0
   32.6590   39.3980   28.7020 C   0  0  0  0  0  0  0  0  0  0  0  0
   32.6790   39.9820   27.2830 C   0  0  0  0  0  0  0  0  0  0  0  0
   33.7700   39.2830   26.4440 C   0  0  0  0  0  0  0  0  0  0  0  0
   35.1320   39.3490   27.1690 C   0  0  0  0  0  0  0  0  0  0  0  0
   34.9930   38.7920   28.5900 C   0  0  0  0  0  0  0  0  0  0  0  0
   33.9570   39.4780   29.3320 O   0  0  0  0  0  0  0  0  0  0  0  0
   32.3240   38.3350   28.6850 H   0  0  0  0  0  0  0  0  0  0  0  0
   32.0270   40.0160   29.3800 H   0  0  0  0  0  0  0  0  0  0  0  0
   32.8800   41.0770   27.3340 H   0  0  0  0  0  0  0  0  0  0  0  0
   31.6840   39.8280   26.8000 H   0  0  0  0  0  0  0  0  0  0  0  0
   33.4760   38.2090   26.2810 H   0  0  0  0  0  0  0  0  0  0  0  0
   35.8830   38.7440   26.6070 H   0  0  0  0  0  0  0  0  0  0  0  0
   35.4850   40.4080   27.2060 H   0  0  0  0  0  0  0  0  0  0  0  0
   34.7580   37.7020   28.5660 H   0  0  0  0  0  0  0  0  0  0  0  0
   35.9010   39.0060   29.2000 H   0  0  0  0  0  0  0  0  0  0  0  0
   33.8960   35.1360   24.0380 C   0  0  0  0  0  0  0  0  0  0  0  0
   34.1410   34.0480   23.8910 H   0  0  0  0  0  0  0  0  0  0  0  0
   34.5040   35.5500   24.8960 H   0  0  0  0  0  0  0  0  0  0  0  0
   32.4070   35.3450   24.3190 C   0  0  0  0  0  0  0  0  0  0  0  0
   32.2710   36.3750   24.7660 H   0  0  0  0  0  0  0  0  0  0  0  0
   31.8250   35.3710   23.3580 H   0  0  0  0  0  0  0  0  0  0  0  0
   31.6680   34.1590   25.4010 S   0  0  0  0  0  0  0  0  0  0  0  0
   32.5320   33.8330   26.5550 O   0  0  0  0  0  0  0  0  0  0  0  0
   31.3570   32.9340   24.6280 O   0  0  0  0  0  0  0  0  0  0  0  0
   30.2100   34.9430   25.9170 C   0  0  0  0  0  0  0  0  0  0  0  0
   29.5540   35.2420   25.0600 H   0  0  0  0  0  0  0  0  0  0  0  0
   29.5870   34.3110   26.5990 H   0  0  0  0  0  0  0  0  0  0  0  0
   30.4100   35.8850   26.4990 H   0  0  0  0  0  0  0  0  0  0  0  0
  1  3  2  0  0  0  0
  1  7  1  0  0  0  0
  1 21  1  0  0  0  0
  2 12  1  0  0  0  0
  2 17  2  0  0  0  0
  2 18  1  0  0  0  0
  3 13  1  0  0  0  0
  3 14  1  0  0  0  0
  4 16  2  0  0  0  0
  4 19  1  0  0  0  0
  4 20  1  0  0  0  0
  5  6  1  0  0  0  0
  5 10  1  0  0  0  0
  5 11  2  0  0  0  0
  6 12  2  0  0  0  0
  6 22  1  0  0  0  0
  7  8  2  0  0  0  0
  7 27  1  0  0  0  0
  8  9  1  0  0  0  0
  8 23  1  0  0  0  0
  9 13  2  0  0  0  0
  9 24  1  0  0  0  0
 10 18  1  0  0  0  0
 10 19  2  0  0  0  0
 11 16  1  0  0  0  0
 11 25  1  0  0  0  0
 12 15  1  0  0  0  0
 13 15  1  0  0  0  0
 18 43  1  0  0  0  0
 20 26  1  0  0  0  0
 20 30  1  0  0  0  0
 28 29  1  0  0  0  0
 28 33  1  0  0  0  0
 28 34  1  0  0  0  0
 28 35  1  0  0  0  0
 29 30  1  0  0  0  0
 29 36  1  0  0  0  0
 29 37  1  0  0  0  0
 30 31  1  0  0  0  0
 30 38  1  0  0  0  0
 31 32  1  0  0  0  0
 31 39  1  0  0  0  0
 31 40  1  0  0  0  0
 32 33  1  0  0  0  0
 32 41  1  0  0  0  0
 32 42  1  0  0  0  0
 43 44  1  0  0  0  0
 43 45  1  0  0  0  0
 43 46  1  0  0  0  0
 46 47  1  0  0  0  0
 46 48  1  0  0  0  0
 46 49  1  0  0  0  0
 49 50  2  0  0  0  0
 49 51  2  0  0  0  0
 49 52  1  0  0  0  0
 52 53  1  0  0  0  0
 52 54  1  0  0  0  0
 52 55  1  0  0  0  0
M  END
$$$$
