20667(2qbp)
 OpenBabel02232411173D
Structure written by MMmdl.
 60 63  0  0  0  0  0  0  0  0999 V2000
   42.4440   18.0040   12.6370 O   0  0  0  0  0  0  0  0  0  0  0  0
   41.3000   17.7340   13.0220 C   0  0  0  0  0  0  0  0  0  0  0  0
   40.2600   18.3780   12.7630 O   0  5  0  0  0  0  0  0  0  0  0  0
   41.0890   16.4760   13.9140 C   0  0  0  0  0  0  0  0  0  0  0  0
   42.4300   15.8930   13.8980 O   0  0  0  0  0  0  0  0  0  0  0  0
   42.6390   14.9420   14.8470 C   0  0  0  0  0  0  0  0  0  0  0  0
   42.0500   13.6200   14.7850 C   0  0  0  0  0  0  0  0  0  0  0  0
   40.8730   13.1770   13.3550 Br  0  0  0  0  0  0  0  0  0  0  0  0
   42.4440   12.7660   15.7820 C   0  0  0  0  0  0  0  0  0  0  0  0
   42.0440   11.4060   16.0890 C   0  0  0  0  0  0  0  0  0  0  0  0
   42.8330   10.5570   16.9060 C   0  0  0  0  0  0  0  0  0  0  0  0
   42.4050    9.2640   17.1830 C   0  0  0  0  0  0  0  0  0  0  0  0
   41.2260    8.7350   16.6350 C   0  0  0  0  0  0  0  0  0  0  0  0
   40.4520    9.5570   15.8030 C   0  0  0  0  0  0  0  0  0  0  0  0
   39.3180    9.1090   15.0860 N   0  0  0  0  0  0  0  0  0  0  0  0
   38.5680    7.8810   15.4140 C   0  0  0  0  0  0  0  0  0  0  0  0
   37.0470    8.0690   15.1660 C   0  0  0  0  0  0  0  0  0  0  0  0
   36.6880    8.1580   13.6710 C   0  0  0  0  0  0  0  0  0  0  0  0
   37.2370    7.0380   12.8610 N   0  0  0  0  0  0  0  0  0  0  0  0
   36.2150    5.7670   12.4100 S   0  0  0  0  0  0  0  0  0  0  0  0
   36.9900    4.8380   11.5950 O   0  0  0  0  0  0  0  0  0  0  0  0
   35.1160    6.4170   11.6710 O   0  0  0  0  0  0  0  0  0  0  0  0
   35.5130    4.9420   13.7990 C   0  0  0  0  0  0  0  0  0  0  0  0
   36.1910    3.6380   14.0730 C   0  0  0  0  0  0  0  0  0  0  0  0
   35.9310    2.5150   13.2670 C   0  0  0  0  0  0  0  0  0  0  0  0
   36.6030    1.3130   13.5020 C   0  0  0  0  0  0  0  0  0  0  0  0
   37.5260    1.2120   14.5500 C   0  0  0  0  0  0  0  0  0  0  0  0
   37.7590    2.3150   15.3750 C   0  0  0  0  0  0  0  0  0  0  0  0
   37.0900    3.5210   15.1440 C   0  0  0  0  0  0  0  0  0  0  0  0
   38.6920    6.8140   13.0880 C   0  0  0  0  0  0  0  0  0  0  0  0
   39.0700    6.6810   14.5680 C   0  0  0  0  0  0  0  0  0  0  0  0
   40.8390   10.9010   15.5900 C   0  0  0  0  0  0  0  0  0  0  0  0
   43.6190   13.6050   16.7760 S   0  0  0  0  0  0  0  0  0  0  0  0
   43.5350   15.0970   15.8730 C   0  0  0  0  0  0  0  0  0  0  0  0
   44.3700   16.3110   16.2910 C   0  0  0  0  0  0  0  0  0  0  0  0
   45.0030   16.1690   17.3630 O   0  0  0  0  0  0  0  0  0  0  0  0
   44.3980   17.2980   15.5560 O   0  5  0  0  0  0  0  0  0  0  0  0
   40.3640   15.7740   13.4520 H   0  0  0  0  0  0  0  0  0  0  0  0
   40.7780   16.7310   14.9460 H   0  0  0  0  0  0  0  0  0  0  0  0
   43.7800   10.8930   17.3300 H   0  0  0  0  0  0  0  0  0  0  0  0
   42.9960    8.6210   17.8410 H   0  0  0  0  0  0  0  0  0  0  0  0
   40.9450    7.7080   16.8430 H   0  0  0  0  0  0  0  0  0  0  0  0
   38.8110    9.7940   14.5150 H   0  0  0  0  0  0  0  0  0  0  0  0
   38.7090    7.6140   16.4980 H   0  0  0  0  0  0  0  0  0  0  0  0
   36.5260    7.2080   15.6460 H   0  0  0  0  0  0  0  0  0  0  0  0
   36.6890    8.9920   15.6790 H   0  0  0  0  0  0  0  0  0  0  0  0
   35.5760    8.1940   13.5580 H   0  0  0  0  0  0  0  0  0  0  0  0
   37.1260    9.1060   13.2470 H   0  0  0  0  0  0  0  0  0  0  0  0
   35.5420    5.5870   14.7220 H   0  0  0  0  0  0  0  0  0  0  0  0
   34.4140    4.7560   13.6240 H   0  0  0  0  0  0  0  0  0  0  0  0
   35.1970    2.5660   12.4570 H   0  0  0  0  0  0  0  0  0  0  0  0
   36.4040    0.4410   12.8720 H   0  0  0  0  0  0  0  0  0  0  0  0
   38.0550    0.2720   14.7290 H   0  0  0  0  0  0  0  0  0  0  0  0
   38.4660    2.2390   16.2080 H   0  0  0  0  0  0  0  0  0  0  0  0
   37.2670    4.3640   15.8190 H   0  0  0  0  0  0  0  0  0  0  0  0
   39.0290    5.9030   12.5360 H   0  0  0  0  0  0  0  0  0  0  0  0
   39.2220    7.7210   12.6820 H   0  0  0  0  0  0  0  0  0  0  0  0
   40.1840    6.6180   14.6490 H   0  0  0  0  0  0  0  0  0  0  0  0
   38.6480    5.7500   15.0030 H   0  0  0  0  0  0  0  0  0  0  0  0
   40.1580   11.5260   15.0150 H   0  0  0  0  0  0  0  0  0  0  0  0
  1  2  2  0  0  0  0
  2  3  1  0  0  0  0
  2  4  1  0  0  0  0
  4  5  1  0  0  0  0
  4 38  1  0  0  0  0
  4 39  1  0  0  0  0
  5  6  1  0  0  0  0
  6 34  2  0  0  0  0
  6  7  1  0  0  0  0
  7  8  1  0  0  0  0
  7  9  2  0  0  0  0
  9 10  1  0  0  0  0
  9 33  1  0  0  0  0
 10 32  2  0  0  0  0
 10 11  1  0  0  0  0
 11 12  2  0  0  0  0
 11 40  1  0  0  0  0
 12 13  1  0  0  0  0
 12 41  1  0  0  0  0
 13 14  2  0  0  0  0
 13 42  1  0  0  0  0
 14 15  1  0  0  0  0
 14 32  1  0  0  0  0
 15 16  1  0  0  0  0
 15 43  1  0  0  0  0
 16 31  1  0  0  0  0
 16 17  1  0  0  0  0
 16 44  1  0  0  0  0
 17 18  1  0  0  0  0
 17 45  1  0  0  0  0
 17 46  1  0  0  0  0
 18 19  1  0  0  0  0
 18 47  1  0  0  0  0
 18 48  1  0  0  0  0
 19 20  1  0  0  0  0
 19 30  1  0  0  0  0
 20 21  2  0  0  0  0
 20 22  2  0  0  0  0
 20 23  1  0  0  0  0
 23 24  1  0  0  0  0
 23 49  1  0  0  0  0
 23 50  1  0  0  0  0
 24 29  2  0  0  0  0
 24 25  1  0  0  0  0
 25 26  2  0  0  0  0
 25 51  1  0  0  0  0
 26 27  1  0  0  0  0
 26 52  1  0  0  0  0
 27 28  2  0  0  0  0
 27 53  1  0  0  0  0
 28 29  1  0  0  0  0
 28 54  1  0  0  0  0
 29 55  1  0  0  0  0
 30 31  1  0  0  0  0
 30 56  1  0  0  0  0
 30 57  1  0  0  0  0
 31 58  1  0  0  0  0
 31 59  1  0  0  0  0
 32 60  1  0  0  0  0
 33 34  1  0  0  0  0
 34 35  1  0  0  0  0
 35 36  2  0  0  0  0
 35 37  1  0  0  0  0
M  CHG  2   3  -1  37  -1
M  END
$$$$
