p38a_2m
 OpenBabel02232411163D
Structure written by MMmdl.
 50 54  0  0  0  0  0  0  0  0999 V2000
   38.2920   36.5790   17.1060 C   0  0  0  0  0  0  0  0  0  0  0  0
   34.5230   35.0120   21.0900 C   0  0  0  0  0  0  0  0  0  0  0  0
   37.4910   36.1090   18.1420 C   0  0  0  0  0  0  0  0  0  0  0  0
   33.9260   38.9870   23.7960 C   0  0  0  0  0  0  0  0  0  0  0  0
   34.6310   37.8860   21.3640 C   0  0  0  0  0  0  0  0  0  0  0  0
   35.0410   37.2790   20.1270 C   0  0  0  0  0  0  0  0  0  0  0  0
   37.6630   36.7640   15.8670 C   0  0  0  0  0  0  0  0  0  0  0  0
   36.3150   36.4820   15.6370 C   0  0  0  0  0  0  0  0  0  0  0  0
   35.5340   35.9950   16.6900 C   0  0  0  0  0  0  0  0  0  0  0  0
   34.2000   37.0710   22.4520 C   0  0  0  0  0  0  0  0  0  0  0  0
   34.6510   39.2900   21.5850 C   0  0  0  0  0  0  0  0  0  0  0  0
   35.0110   35.9310   20.0250 C   0  0  0  0  0  0  0  0  0  0  0  0
   36.1290   35.7990   17.9400 C   0  0  0  0  0  0  0  0  0  0  0  0
   38.0040   35.9490   19.3550 F   0  0  0  0  0  0  0  0  0  0  0  0
   35.3900   35.1490   18.9350 O   0  0  0  0  0  0  0  0  0  0  0  0
   34.3200   39.8550   22.7560 N   0  0  0  0  0  0  0  0  0  0  0  0
   34.4530   33.8080   20.9880 O   0  0  0  0  0  0  0  0  0  0  0  0
   34.1250   35.6700   22.3080 N   0  0  0  0  0  0  0  0  0  0  0  0
   33.8610   37.6100   23.6640 N   0  0  0  0  0  0  0  0  0  0  0  0
   33.5710   39.5420   25.0000 N   0  0  0  0  0  0  0  0  0  0  0  0
   39.3460   36.8280   17.2590 H   0  0  0  0  0  0  0  0  0  0  0  0
   35.3730   37.9310   19.3160 H   0  0  0  0  0  0  0  0  0  0  0  0
   35.8590   36.6500   14.6590 H   0  0  0  0  0  0  0  0  0  0  0  0
   34.4720   35.7840   16.5310 H   0  0  0  0  0  0  0  0  0  0  0  0
   34.9470   39.9690   20.7670 H   0  0  0  0  0  0  0  0  0  0  0  0
   33.6460   40.5660   25.1430 H   0  0  0  0  0  0  0  0  0  0  0  0
   38.3780   37.2740   14.8670 F   0  0  0  0  0  0  0  0  0  0  0  0
   33.1030   40.4100   28.0750 C   0  0  0  0  0  0  0  0  0  0  0  0
   32.2430   39.6040   27.0940 C   0  0  0  0  0  0  0  0  0  0  0  0
   33.0660   38.7110   26.1420 C   0  0  0  0  0  0  0  0  0  0  0  0
   34.2120   37.9980   26.8890 C   0  0  0  0  0  0  0  0  0  0  0  0
   34.9870   38.9410   27.8090 C   0  0  0  0  0  0  0  0  0  0  0  0
   34.0970   39.6020   28.7390 O   0  0  0  0  0  0  0  0  0  0  0  0
   32.4910   40.7860   28.9260 H   0  0  0  0  0  0  0  0  0  0  0  0
   33.6220   41.2440   27.5510 H   0  0  0  0  0  0  0  0  0  0  0  0
   31.6200   40.3140   26.4960 H   0  0  0  0  0  0  0  0  0  0  0  0
   31.5490   38.9360   27.6640 H   0  0  0  0  0  0  0  0  0  0  0  0
   32.3780   37.9240   25.7120 H   0  0  0  0  0  0  0  0  0  0  0  0
   33.7550   37.1710   27.4910 H   0  0  0  0  0  0  0  0  0  0  0  0
   34.9150   37.5250   26.1600 H   0  0  0  0  0  0  0  0  0  0  0  0
   35.6640   38.3810   28.4930 H   0  0  0  0  0  0  0  0  0  0  0  0
   35.5360   39.7140   27.2240 H   0  0  0  0  0  0  0  0  0  0  0  0
   33.6810   34.8670   23.4670 C   0  0  0  0  0  0  0  0  0  0  0  0
   32.6570   33.7530   23.2910 C   0  0  0  0  0  0  0  0  0  0  0  0
   32.2610   35.0300   24.0030 C   0  0  0  0  0  0  0  0  0  0  0  0
   34.5010   34.7330   24.1990 H   0  0  0  0  0  0  0  0  0  0  0  0
   32.2160   33.5420   22.3090 H   0  0  0  0  0  0  0  0  0  0  0  0
   32.8000   32.8390   23.8880 H   0  0  0  0  0  0  0  0  0  0  0  0
   31.5600   35.7220   23.5180 H   0  0  0  0  0  0  0  0  0  0  0  0
   32.1270   35.0240   25.0960 H   0  0  0  0  0  0  0  0  0  0  0  0
  1  3  2  0  0  0  0
  1  7  1  0  0  0  0
  1 21  1  0  0  0  0
  2 12  1  0  0  0  0
  2 17  2  0  0  0  0
  2 18  1  0  0  0  0
  3 13  1  0  0  0  0
  3 14  1  0  0  0  0
  4 16  2  0  0  0  0
  4 19  1  0  0  0  0
  4 20  1  0  0  0  0
  5  6  1  0  0  0  0
  5 10  1  0  0  0  0
  5 11  2  0  0  0  0
  6 12  2  0  0  0  0
  6 22  1  0  0  0  0
  7  8  2  0  0  0  0
  7 27  1  0  0  0  0
  8  9  1  0  0  0  0
  8 23  1  0  0  0  0
  9 13  2  0  0  0  0
  9 24  1  0  0  0  0
 10 18  1  0  0  0  0
 10 19  2  0  0  0  0
 11 16  1  0  0  0  0
 11 25  1  0  0  0  0
 12 15  1  0  0  0  0
 13 15  1  0  0  0  0
 18 43  1  0  0  0  0
 20 26  1  0  0  0  0
 20 30  1  0  0  0  0
 28 29  1  0  0  0  0
 28 33  1  0  0  0  0
 28 34  1  0  0  0  0
 28 35  1  0  0  0  0
 29 30  1  0  0  0  0
 29 36  1  0  0  0  0
 29 37  1  0  0  0  0
 30 31  1  0  0  0  0
 30 38  1  0  0  0  0
 31 32  1  0  0  0  0
 31 39  1  0  0  0  0
 31 40  1  0  0  0  0
 32 33  1  0  0  0  0
 32 41  1  0  0  0  0
 32 42  1  0  0  0  0
 43 44  1  0  0  0  0
 43 45  1  0  0  0  0
 43 46  1  0  0  0  0
 44 45  1  0  0  0  0
 44 47  1  0  0  0  0
 44 48  1  0  0  0  0
 45 49  1  0  0  0  0
 45 50  1  0  0  0  0
M  END
$$$$
