p38a_3fmh
 OpenBabel02232411163D
Structure written by MMmdl.
 46 49  0  0  1  0  0  0  0  0999 V2000
   38.3210   37.1980   14.9070 F   0  0  0  0  0  0  0  0  0  0  0  0
   37.6320   36.6990   15.9310 C   0  0  0  0  0  0  0  0  0  0  0  0
   36.2830   36.3950   15.7360 C   0  0  0  0  0  0  0  0  0  0  0  0
   35.5300   35.9240   16.8180 C   0  0  0  0  0  0  0  0  0  0  0  0
   38.2900   36.5460   17.1590 C   0  0  0  0  0  0  0  0  0  0  0  0
   37.5160   36.0890   18.2230 C   0  0  0  0  0  0  0  0  0  0  0  0
   38.0570   35.9600   19.4270 F   0  0  0  0  0  0  0  0  0  0  0  0
   36.1530   35.7610   18.0580 C   0  0  0  0  0  0  0  0  0  0  0  0
   35.4460   35.1310   19.0910 O   0  0  0  0  0  0  0  0  0  0  0  0
   35.0540   35.9490   20.1470 C   0  0  0  0  0  0  0  0  0  0  0  0
   34.5230   35.0820   21.2340 C   0  0  0  0  0  0  0  0  0  0  0  0
   34.3880   33.8800   21.1720 O   0  0  0  0  0  0  0  0  0  0  0  0
   34.1570   35.7860   22.4340 N   0  0  0  0  0  0  0  0  0  0  0  0
   33.6320   35.0150   23.5960 C   0  0  0  0  0  0  0  0  0  0  0  0
   34.2500   37.1830   22.5330 C   0  0  0  0  0  0  0  0  0  0  0  0
   33.8950   37.7760   23.7210 N   0  0  0  0  0  0  0  0  0  0  0  0
   35.1070   37.3000   20.2070 C   0  0  0  0  0  0  0  0  0  0  0  0
   34.6970   37.9550   21.4200 C   0  0  0  0  0  0  0  0  0  0  0  0
   34.7170   39.3650   21.5820 C   0  0  0  0  0  0  0  0  0  0  0  0
   34.3790   39.9730   22.7300 N   0  0  0  0  0  0  0  0  0  0  0  0
   33.9790   39.1480   23.7960 C   0  0  0  0  0  0  0  0  0  0  0  0
   33.7260   39.7670   25.0150 N   0  0  0  0  0  0  0  0  0  0  0  0
   32.8350   39.1090   26.0170 C   0  0  2  0  0  0  0  0  0  0  0  0
   31.3710   39.1370   25.5540 C   0  0  0  0  0  0  0  0  0  0  0  0
   32.9460   39.8750   27.3680 C   0  0  0  0  0  0  0  0  0  0  0  0
   34.2920   39.8050   27.9750 N   0  0  0  0  0  0  0  0  0  0  0  0
   34.6660   38.8260   28.8460 N   0  0  0  0  0  0  0  0  0  0  0  0
   35.9420   39.1540   29.1910 C   0  0  0  0  0  0  0  0  0  0  0  0
   36.3170   40.3390   28.5010 N   0  0  0  0  0  0  0  0  0  0  0  0
   35.3090   40.7080   27.7780 N   0  0  0  0  0  0  0  0  0  0  0  0
   35.8040   36.5340   14.7640 H   0  0  0  0  0  0  0  0  0  0  0  0
   34.4660   35.7030   16.6870 H   0  0  0  0  0  0  0  0  0  0  0  0
   39.3440   36.8080   17.2850 H   0  0  0  0  0  0  0  0  0  0  0  0
   34.2700   35.1990   24.5020 H   0  0  0  0  0  0  0  0  0  0  0  0
   32.5830   35.3440   23.8300 H   0  0  0  0  0  0  0  0  0  0  0  0
   33.6290   33.9180   23.3660 H   0  0  0  0  0  0  0  0  0  0  0  0
   35.4570   37.9190   19.3780 H   0  0  0  0  0  0  0  0  0  0  0  0
   35.0030   40.0080   20.7340 H   0  0  0  0  0  0  0  0  0  0  0  0
   33.6540   40.8090   25.0190 H   0  0  0  0  0  0  0  0  0  0  0  0
   33.1620   38.0400   26.1670 H   0  0  0  0  0  0  0  0  0  0  0  0
   30.7040   38.7440   26.3570 H   0  0  0  0  0  0  0  0  0  0  0  0
   31.0530   40.1700   25.2930 H   0  0  0  0  0  0  0  0  0  0  0  0
   31.2380   38.4810   24.6630 H   0  0  0  0  0  0  0  0  0  0  0  0
   32.6820   40.9600   27.2220 H   0  0  0  0  0  0  0  0  0  0  0  0
   32.2020   39.4170   28.0860 H   0  0  0  0  0  0  0  0  0  0  0  0
   36.5800   38.6190   29.8910 H   0  0  0  0  0  0  0  0  0  0  0  0
  1  2  1  0  0  0  0
  2  3  2  0  0  0  0
  2  5  1  0  0  0  0
  3  4  1  0  0  0  0
  3 31  1  0  0  0  0
  4  8  2  0  0  0  0
  4 32  1  0  0  0  0
  5  6  2  0  0  0  0
  5 33  1  0  0  0  0
  6  7  1  0  0  0  0
  6  8  1  0  0  0  0
  8  9  1  0  0  0  0
  9 10  1  0  0  0  0
 10 11  1  0  0  0  0
 10 17  2  0  0  0  0
 11 12  2  0  0  0  0
 11 13  1  0  0  0  0
 13 14  1  0  0  0  0
 13 15  1  0  0  0  0
 14 34  1  0  0  0  0
 14 35  1  0  0  0  0
 14 36  1  0  0  0  0
 15 16  2  0  0  0  0
 15 18  1  0  0  0  0
 16 21  1  0  0  0  0
 17 18  1  0  0  0  0
 17 37  1  0  0  0  0
 18 19  2  0  0  0  0
 19 20  1  0  0  0  0
 19 38  1  0  0  0  0
 20 21  2  0  0  0  0
 21 22  1  0  0  0  0
 22 23  1  0  0  0  0
 22 39  1  0  0  0  0
 23 24  1  0  0  0  0
 23 25  1  0  0  0  0
 23 40  1  6  0  0  0
 24 41  1  0  0  0  0
 24 42  1  0  0  0  0
 24 43  1  0  0  0  0
 25 26  1  0  0  0  0
 25 44  1  0  0  0  0
 25 45  1  0  0  0  0
 26 27  1  0  0  0  0
 26 30  1  0  0  0  0
 27 28  2  0  0  0  0
 28 29  1  0  0  0  0
 28 46  1  0  0  0  0
 29 30  2  0  0  0  0
M  END
$$$$
