p38a_3fmk
 OpenBabel02232411163D
Structure written by MMmdl.
 46 49  0  0  1  0  0  0  0  0999 V2000
   35.7250   35.5600   16.9780 C   0  0  0  0  0  0  0  0  0  0  0  0
   36.3540   36.0340   15.8310 C   0  0  0  0  0  0  0  0  0  0  0  0
   33.2850   35.0790   23.5320 C   0  0  0  0  0  0  0  0  0  0  0  0
   38.3180   36.5680   17.2210 C   0  0  0  0  0  0  0  0  0  0  0  0
   34.7600   39.3400   21.5820 C   0  0  0  0  0  0  0  0  0  0  0  0
   32.4760   39.3570   25.9030 C   0  0  1  0  0  0  0  0  0  0  0  0
   33.2220   38.3070   26.7770 C   0  0  0  0  0  0  0  0  0  0  0  0
   33.7450   39.2050   23.6930 C   0  0  0  0  0  0  0  0  0  0  0  0
   34.4570   35.0600   21.2950 C   0  0  0  0  0  0  0  0  0  0  0  0
   35.1620   35.8800   20.2720 C   0  0  0  0  0  0  0  0  0  0  0  0
   35.2590   37.2280   20.3160 C   0  0  0  0  0  0  0  0  0  0  0  0
   36.3520   35.6170   18.2390 C   0  0  0  0  0  0  0  0  0  0  0  0
   37.6500   36.1190   18.3660 C   0  0  0  0  0  0  0  0  0  0  0  0
   34.7110   37.9250   21.4490 C   0  0  0  0  0  0  0  0  0  0  0  0
   34.0990   37.2010   22.5130 C   0  0  0  0  0  0  0  0  0  0  0  0
   33.3400   39.8930   24.8180 N   0  0  0  0  0  0  0  0  0  0  0  0
   37.6470   36.5480   15.9950 C   0  0  0  0  0  0  0  0  0  0  0  0
   38.2480   37.0770   14.9320 F   0  0  0  0  0  0  0  0  0  0  0  0
   34.5130   35.0260   16.9080 F   0  0  0  0  0  0  0  0  0  0  0  0
   35.6580   35.0150   19.2980 O   0  0  0  0  0  0  0  0  0  0  0  0
   34.2750   33.8640   21.2300 O   0  0  0  0  0  0  0  0  0  0  0  0
   33.9700   35.8040   22.4260 N   0  0  0  0  0  0  0  0  0  0  0  0
   33.6230   37.8340   23.6370 N   0  0  0  0  0  0  0  0  0  0  0  0
   34.3050   39.9890   22.6630 N   0  0  0  0  0  0  0  0  0  0  0  0
   31.1670   38.7560   25.3840 C   0  0  0  0  0  0  0  0  0  0  0  0
   34.2670   38.9410   27.6100 N   0  0  0  0  0  0  0  0  0  0  0  0
   33.9930   39.5270   28.8120 N   0  0  0  0  0  0  0  0  0  0  0  0
   35.1870   40.0430   29.2160 C   0  0  0  0  0  0  0  0  0  0  0  0
   36.1690   39.7530   28.2320 N   0  0  0  0  0  0  0  0  0  0  0  0
   35.5890   39.0950   27.2780 N   0  0  0  0  0  0  0  0  0  0  0  0
   35.8600   36.0280   14.8560 H   0  0  0  0  0  0  0  0  0  0  0  0
   33.8280   35.2540   24.5010 H   0  0  0  0  0  0  0  0  0  0  0  0
   32.2330   35.4570   23.6450 H   0  0  0  0  0  0  0  0  0  0  0  0
   33.2580   33.9790   23.3220 H   0  0  0  0  0  0  0  0  0  0  0  0
   39.3370   36.9570   17.2960 H   0  0  0  0  0  0  0  0  0  0  0  0
   35.1780   39.9490   20.7650 H   0  0  0  0  0  0  0  0  0  0  0  0
   32.2240   40.2510   26.5500 H   0  0  0  0  0  0  0  0  0  0  0  0
   32.4700   37.8040   27.4550 H   0  0  0  0  0  0  0  0  0  0  0  0
   33.6910   37.5100   26.1310 H   0  0  0  0  0  0  0  0  0  0  0  0
   35.7450   37.8180   19.5350 H   0  0  0  0  0  0  0  0  0  0  0  0
   38.1400   36.1850   19.3400 H   0  0  0  0  0  0  0  0  0  0  0  0
   33.4630   40.9240   24.8470 H   0  0  0  0  0  0  0  0  0  0  0  0
   30.6480   39.4760   24.7140 H   0  0  0  0  0  0  0  0  0  0  0  0
   31.3430   37.8030   24.8310 H   0  0  0  0  0  0  0  0  0  0  0  0
   30.4970   38.5360   26.2490 H   0  0  0  0  0  0  0  0  0  0  0  0
   35.3770   40.5890   30.1390 H   0  0  0  0  0  0  0  0  0  0  0  0
  1  2  2  0  0  0  0
  1 12  1  0  0  0  0
  1 19  1  0  0  0  0
  2 17  1  0  0  0  0
  2 31  1  0  0  0  0
  3 22  1  0  0  0  0
  3 32  1  0  0  0  0
  3 33  1  0  0  0  0
  3 34  1  0  0  0  0
  4 13  1  0  0  0  0
  4 17  2  0  0  0  0
  4 35  1  0  0  0  0
  5 14  2  0  0  0  0
  5 24  1  0  0  0  0
  5 36  1  0  0  0  0
  6  7  1  0  0  0  0
  6 16  1  0  0  0  0
  6 25  1  0  0  0  0
  6 37  1  6  0  0  0
  7 26  1  0  0  0  0
  7 38  1  0  0  0  0
  7 39  1  0  0  0  0
  8 16  1  0  0  0  0
  8 23  1  0  0  0  0
  8 24  2  0  0  0  0
  9 10  1  0  0  0  0
  9 21  2  0  0  0  0
  9 22  1  0  0  0  0
 10 11  2  0  0  0  0
 10 20  1  0  0  0  0
 11 14  1  0  0  0  0
 11 40  1  0  0  0  0
 12 13  2  0  0  0  0
 12 20  1  0  0  0  0
 13 41  1  0  0  0  0
 14 15  1  0  0  0  0
 15 22  1  0  0  0  0
 15 23  2  0  0  0  0
 16 42  1  0  0  0  0
 17 18  1  0  0  0  0
 25 43  1  0  0  0  0
 25 44  1  0  0  0  0
 25 45  1  0  0  0  0
 26 27  1  0  0  0  0
 26 30  1  0  0  0  0
 27 28  2  0  0  0  0
 28 29  1  0  0  0  0
 28 46  1  0  0  0  0
 29 30  2  0  0  0  0
M  END
$$$$
