p38a_2u
 OpenBabel02232411163D
Structure written by MMmdl.
 64 68  0  0  0  0  0  0  0  0999 V2000
   38.2120   36.4560   17.2850 C   0  0  0  0  0  0  0  0  0  0  0  0
   34.5250   35.1810   21.4880 C   0  0  0  0  0  0  0  0  0  0  0  0
   37.4470   36.0470   18.3740 C   0  0  0  0  0  0  0  0  0  0  0  0
   34.1040   39.3470   23.9140 C   0  0  0  0  0  0  0  0  0  0  0  0
   34.6770   38.0550   21.5460 C   0  0  0  0  0  0  0  0  0  0  0  0
   35.0490   37.3580   20.3460 C   0  0  0  0  0  0  0  0  0  0  0  0
   37.5410   36.5730   16.0600 C   0  0  0  0  0  0  0  0  0  0  0  0
   36.1860   36.2750   15.8940 C   0  0  0  0  0  0  0  0  0  0  0  0
   35.4420   35.8590   17.0030 C   0  0  0  0  0  0  0  0  0  0  0  0
   34.3210   37.3240   22.7180 C   0  0  0  0  0  0  0  0  0  0  0  0
   34.6590   39.4730   21.6400 C   0  0  0  0  0  0  0  0  0  0  0  0
   35.0160   36.0070   20.3470 C   0  0  0  0  0  0  0  0  0  0  0  0
   36.0770   35.7370   18.2420 C   0  0  0  0  0  0  0  0  0  0  0  0
   38.0100   35.9440   19.5700 F   0  0  0  0  0  0  0  0  0  0  0  0
   35.3720   35.1530   19.3040 O   0  0  0  0  0  0  0  0  0  0  0  0
   34.3860   40.1300   22.7760 N   0  0  0  0  0  0  0  0  0  0  0  0
   34.3670   33.9800   21.4430 O   0  0  0  0  0  0  0  0  0  0  0  0
   34.2280   35.9150   22.6900 N   0  0  0  0  0  0  0  0  0  0  0  0
   34.0570   37.9650   23.8990 N   0  0  0  0  0  0  0  0  0  0  0  0
   33.7980   40.0000   25.0830 N   0  0  0  0  0  0  0  0  0  0  0  0
   39.2720   36.7100   17.3860 H   0  0  0  0  0  0  0  0  0  0  0  0
   35.3580   37.9460   19.4780 H   0  0  0  0  0  0  0  0  0  0  0  0
   35.6980   36.3770   14.9210 H   0  0  0  0  0  0  0  0  0  0  0  0
   34.3730   35.6480   16.8950 H   0  0  0  0  0  0  0  0  0  0  0  0
   34.8710   40.0800   20.7440 H   0  0  0  0  0  0  0  0  0  0  0  0
   33.9250   41.0280   25.1480 H   0  0  0  0  0  0  0  0  0  0  0  0
   38.2240   37.0270   15.0120 F   0  0  0  0  0  0  0  0  0  0  0  0
   32.6000   39.4470   28.6710 C   0  0  0  0  0  0  0  0  0  0  0  0
   32.6930   40.0970   27.2840 C   0  0  0  0  0  0  0  0  0  0  0  0
   33.6440   39.2800   26.3860 C   0  0  0  0  0  0  0  0  0  0  0  0
   35.0140   39.1030   27.0760 C   0  0  0  0  0  0  0  0  0  0  0  0
   34.8160   38.5000   28.4720 C   0  0  0  0  0  0  0  0  0  0  0  0
   33.9040   39.2850   29.2740 O   0  0  0  0  0  0  0  0  0  0  0  0
   32.1000   38.4540   28.6130 H   0  0  0  0  0  0  0  0  0  0  0  0
   32.0900   40.1250   29.3940 H   0  0  0  0  0  0  0  0  0  0  0  0
   33.0720   41.1410   27.3920 H   0  0  0  0  0  0  0  0  0  0  0  0
   31.6810   40.1390   26.8170 H   0  0  0  0  0  0  0  0  0  0  0  0
   33.1890   38.2690   26.1860 H   0  0  0  0  0  0  0  0  0  0  0  0
   35.6580   38.4200   26.4710 H   0  0  0  0  0  0  0  0  0  0  0  0
   35.5270   40.0910   27.1570 H   0  0  0  0  0  0  0  0  0  0  0  0
   34.4300   37.4560   28.4030 H   0  0  0  0  0  0  0  0  0  0  0  0
   35.7570   38.5500   29.0690 H   0  0  0  0  0  0  0  0  0  0  0  0
   34.0620   32.9850   25.1780 C   0  0  0  0  0  0  0  0  0  0  0  0
   34.7420   34.1760   24.4550 C   0  0  0  0  0  0  0  0  0  0  0  0
   33.7150   35.1910   23.9200 C   0  0  0  0  0  0  0  0  0  0  0  0
   32.3660   34.5160   23.6200 C   0  0  0  0  0  0  0  0  0  0  0  0
   31.7640   33.9860   24.9360 C   0  0  0  0  0  0  0  0  0  0  0  0
   34.7900   32.6260   25.9530 H   0  0  0  0  0  0  0  0  0  0  0  0
   33.8820   32.1630   24.4350 H   0  0  0  0  0  0  0  0  0  0  0  0
   35.3690   33.7530   23.6360 H   0  0  0  0  0  0  0  0  0  0  0  0
   35.4140   34.7020   25.1770 H   0  0  0  0  0  0  0  0  0  0  0  0
   33.5470   35.9630   24.7310 H   0  0  0  0  0  0  0  0  0  0  0  0
   31.6500   35.2510   23.1800 H   0  0  0  0  0  0  0  0  0  0  0  0
   32.5030   33.6800   22.8930 H   0  0  0  0  0  0  0  0  0  0  0  0
   31.3170   34.8510   25.5020 H   0  0  0  0  0  0  0  0  0  0  0  0
   30.9600   33.2490   24.6680 H   0  0  0  0  0  0  0  0  0  0  0  0
   32.7880   33.3740   25.8450 N   0  0  0  0  0  0  0  0  0  0  0  0
   32.1580   32.4460   27.1570 S   0  0  0  0  0  0  0  0  0  0  0  0
   30.9540   31.7240   26.6910 O   0  0  0  0  0  0  0  0  0  0  0  0
   31.8360   33.3820   28.2510 O   0  0  0  0  0  0  0  0  0  0  0  0
   33.3800   31.3290   27.6670 C   0  0  0  0  0  0  0  0  0  0  0  0
   34.2820   31.8350   28.1010 H   0  0  0  0  0  0  0  0  0  0  0  0
   32.9930   30.6520   28.4800 H   0  0  0  0  0  0  0  0  0  0  0  0
   33.7240   30.6430   26.8490 H   0  0  0  0  0  0  0  0  0  0  0  0
  1  3  2  0  0  0  0
  1  7  1  0  0  0  0
  1 21  1  0  0  0  0
  2 12  1  0  0  0  0
  2 17  2  0  0  0  0
  2 18  1  0  0  0  0
  3 13  1  0  0  0  0
  3 14  1  0  0  0  0
  4 16  2  0  0  0  0
  4 19  1  0  0  0  0
  4 20  1  0  0  0  0
  5  6  1  0  0  0  0
  5 10  1  0  0  0  0
  5 11  2  0  0  0  0
  6 12  2  0  0  0  0
  6 22  1  0  0  0  0
  7  8  2  0  0  0  0
  7 27  1  0  0  0  0
  8  9  1  0  0  0  0
  8 23  1  0  0  0  0
  9 13  2  0  0  0  0
  9 24  1  0  0  0  0
 10 18  1  0  0  0  0
 10 19  2  0  0  0  0
 11 16  1  0  0  0  0
 11 25  1  0  0  0  0
 12 15  1  0  0  0  0
 13 15  1  0  0  0  0
 18 45  1  0  0  0  0
 20 26  1  0  0  0  0
 20 30  1  0  0  0  0
 28 29  1  0  0  0  0
 28 33  1  0  0  0  0
 28 34  1  0  0  0  0
 28 35  1  0  0  0  0
 29 30  1  0  0  0  0
 29 36  1  0  0  0  0
 29 37  1  0  0  0  0
 30 31  1  0  0  0  0
 30 38  1  0  0  0  0
 31 32  1  0  0  0  0
 31 39  1  0  0  0  0
 31 40  1  0  0  0  0
 32 33  1  0  0  0  0
 32 41  1  0  0  0  0
 32 42  1  0  0  0  0
 43 44  1  0  0  0  0
 43 48  1  0  0  0  0
 43 49  1  0  0  0  0
 43 57  1  0  0  0  0
 44 45  1  0  0  0  0
 44 50  1  0  0  0  0
 44 51  1  0  0  0  0
 45 46  1  0  0  0  0
 45 52  1  0  0  0  0
 46 47  1  0  0  0  0
 46 53  1  0  0  0  0
 46 54  1  0  0  0  0
 47 55  1  0  0  0  0
 47 56  1  0  0  0  0
 47 57  1  0  0  0  0
 57 58  1  0  0  0  0
 58 59  2  0  0  0  0
 58 60  2  0  0  0  0
 58 61  1  0  0  0  0
 61 62  1  0  0  0  0
 61 63  1  0  0  0  0
 61 64  1  0  0  0  0
M  END
$$$$
