18639-1
 OpenBabel02232411163D
Structure written by MMmdl.
 48 49  0  0  0  0  0  0  0  0999 V2000
   24.4500   10.8670   30.7730 C   0  0  0  0  0  0  0  0  0  0  0  0
   23.1270   11.2250   30.1280 C   0  0  0  0  0  0  0  0  0  0  0  0
   22.0460   11.2870   31.1340 O   0  0  0  0  0  0  0  0  0  0  0  0
   21.4630   10.1380   31.5460 C   0  0  0  0  0  0  0  0  0  0  0  0
   21.9390    8.9500   31.1060 N   0  0  0  0  0  0  0  0  0  0  0  0
   21.2470    7.8070   31.4750 C   0  0  0  0  0  0  0  0  0  0  0  0
   20.1140    7.8380   32.2790 C   0  0  0  0  0  0  0  0  0  0  0  0
   19.6270    9.0890   32.7470 C   0  0  0  0  0  0  0  0  0  0  0  0
   18.4910    9.1260   33.5130 N   0  0  0  0  0  0  0  0  0  0  0  0
   20.3200   10.2900   32.3870 C   0  0  0  0  0  0  0  0  0  0  0  0
   19.9160   11.5860   32.7690 C   0  0  0  0  0  0  0  0  0  0  0  0
   19.6360   12.6780   33.0420 N   0  0  0  0  0  0  0  0  0  0  0  0
   21.8340    6.6440   30.9230 N   0  0  0  0  0  0  0  0  0  0  0  0
   21.2580    5.3580   30.8610 C   0  0  0  0  0  0  0  0  0  0  0  0
   20.1800    5.0920   31.3480 O   0  0  0  0  0  0  0  0  0  0  0  0
   22.0870    4.3650   30.0540 C   0  0  0  0  0  0  0  0  0  0  0  0
   23.4560    4.1030   30.6090 C   0  0  0  0  0  0  0  0  0  0  0  0
   24.5480    4.9720   30.2910 C   0  0  0  0  0  0  0  0  0  0  0  0
   24.1820    6.0240   29.4610 O   0  0  0  0  0  0  0  0  0  0  0  0
   25.1370    7.1070   29.2840 C   0  0  0  0  0  0  0  0  0  0  0  0
   25.8300    4.7310   30.7580 C   0  0  0  0  0  0  0  0  0  0  0  0
   26.0680    3.6140   31.5860 C   0  0  0  0  0  0  0  0  0  0  0  0
   27.4240    3.3630   32.0850 N   0  3  0  0  0  0  0  0  0  0  0  0
   27.5640    2.5630   32.9970 O   0  5  0  0  0  0  0  0  0  0  0  0
   28.3580    3.9600   31.5640 O   0  0  0  0  0  0  0  0  0  0  0  0
   25.0010    2.7430   31.9090 C   0  0  0  0  0  0  0  0  0  0  0  0
   23.7040    2.9950   31.4040 C   0  0  0  0  0  0  0  0  0  0  0  0
   25.3550    1.7030   32.7140 O   0  0  0  0  0  0  0  0  0  0  0  0
   24.3620    0.6620   32.9520 C   0  0  0  0  0  0  0  0  0  0  0  0
   25.2420   10.8150   29.9840 H   0  0  0  0  0  0  0  0  0  0  0  0
   24.7480   11.6300   31.5230 H   0  0  0  0  0  0  0  0  0  0  0  0
   24.4000    9.8680   31.2680 H   0  0  0  0  0  0  0  0  0  0  0  0
   23.1030   12.2820   29.7690 H   0  0  0  0  0  0  0  0  0  0  0  0
   22.8430   10.5070   29.3250 H   0  0  0  0  0  0  0  0  0  0  0  0
   19.5800    6.9210   32.5380 H   0  0  0  0  0  0  0  0  0  0  0  0
   17.9940    8.2520   33.7730 H   0  0  0  0  0  0  0  0  0  0  0  0
   18.0830   10.0100   33.8180 H   0  0  0  0  0  0  0  0  0  0  0  0
   22.7420    6.8010   30.4170 H   0  0  0  0  0  0  0  0  0  0  0  0
   21.5180    3.3980   29.9940 H   0  0  0  0  0  0  0  0  0  0  0  0
   22.1940    4.7780   29.0110 H   0  0  0  0  0  0  0  0  0  0  0  0
   25.4930    7.4840   30.2660 H   0  0  0  0  0  0  0  0  0  0  0  0
   25.9670    6.7530   28.6360 H   0  0  0  0  0  0  0  0  0  0  0  0
   24.5070    7.8680   28.7660 H   0  0  0  0  0  0  0  0  0  0  0  0
   26.6690    5.3830   30.4840 H   0  0  0  0  0  0  0  0  0  0  0  0
   22.8910    2.3040   31.6390 H   0  0  0  0  0  0  0  0  0  0  0  0
   24.9510   -0.0720   33.5530 H   0  0  0  0  0  0  0  0  0  0  0  0
   23.5130    1.0700   33.5410 H   0  0  0  0  0  0  0  0  0  0  0  0
   24.0370    0.2160   31.9870 H   0  0  0  0  0  0  0  0  0  0  0  0
  1  2  1  0  0  0  0
  1 30  1  0  0  0  0
  1 31  1  0  0  0  0
  1 32  1  0  0  0  0
  2  3  1  0  0  0  0
  2 33  1  0  0  0  0
  2 34  1  0  0  0  0
  3  4  1  0  0  0  0
  4 10  2  0  0  0  0
  4  5  1  0  0  0  0
  5  6  2  0  0  0  0
  6  7  1  0  0  0  0
  6 13  1  0  0  0  0
  7  8  2  0  0  0  0
  7 35  1  0  0  0  0
  8  9  1  0  0  0  0
  8 10  1  0  0  0  0
  9 36  1  0  0  0  0
  9 37  1  0  0  0  0
 10 11  1  0  0  0  0
 11 12  3  0  0  0  0
 13 14  1  0  0  0  0
 13 38  1  0  0  0  0
 14 15  2  0  0  0  0
 14 16  1  0  0  0  0
 16 17  1  0  0  0  0
 16 39  1  0  0  0  0
 16 40  1  0  0  0  0
 17 27  2  0  0  0  0
 17 18  1  0  0  0  0
 18 19  1  0  0  0  0
 18 21  2  0  0  0  0
 19 20  1  0  0  0  0
 20 41  1  0  0  0  0
 20 42  1  0  0  0  0
 20 43  1  0  0  0  0
 21 22  1  0  0  0  0
 21 44  1  0  0  0  0
 22 23  1  0  0  0  0
 22 26  2  0  0  0  0
 23 24  1  0  0  0  0
 23 25  2  0  0  0  0
 26 27  1  0  0  0  0
 26 28  1  0  0  0  0
 27 45  1  0  0  0  0
 28 29  1  0  0  0  0
 29 46  1  0  0  0  0
 29 47  1  0  0  0  0
 29 48  1  0  0  0  0
M  CHG  2  23   1  24  -1
M  END
$$$$
