66
 OpenBabel02232411163D
Structure written by MMmdl.
 43 46  0  0  0  0  0  0  0  0999 V2000
    3.2160  -47.7860    7.0690 O   0  0  0  0  0  0  0  0  0  0  0  0
    2.9520  -48.8700    6.5320 C   0  0  0  0  0  0  0  0  0  0  0  0
    3.7570  -49.7250    6.1180 O   0  5  0  0  0  0  0  0  0  0  0  0
    1.4790  -49.2870    6.4050 C   0  0  0  0  0  0  0  0  0  0  0  0
    1.1470  -50.9220    6.9360 S   0  0  0  0  0  0  0  0  0  0  0  0
   -0.5600  -50.7800    6.6280 C   0  0  0  0  0  0  0  0  0  0  0  0
   -1.5890  -51.6940    6.8410 C   0  0  0  0  0  0  0  0  0  0  0  0
   -2.8970  -51.3920    6.4810 C   0  0  0  0  0  0  0  0  0  0  0  0
   -3.1750  -50.1360    5.9110 C   0  0  0  0  0  0  0  0  0  0  0  0
   -2.1690  -49.1940    5.7130 C   0  0  0  0  0  0  0  0  0  0  0  0
   -0.8430  -49.5000    6.0740 C   0  0  0  0  0  0  0  0  0  0  0  0
    0.3540  -48.6550    5.9800 C   0  0  0  0  0  0  0  0  0  0  0  0
    0.2680  -47.2470    5.4830 C   0  0  0  0  0  0  0  0  0  0  0  0
    0.2580  -46.2170    6.6250 C   0  0  0  0  0  0  0  0  0  0  0  0
   -0.9020  -46.3710    7.6010 C   0  0  0  0  0  0  0  0  0  0  0  0
   -2.0810  -45.8130    6.9070 O   0  0  0  0  0  0  0  0  0  0  0  0
   -3.2680  -45.8230    7.5800 C   0  0  0  0  0  0  0  0  0  0  0  0
   -5.8020  -45.6050    8.7780 C   0  0  0  0  0  0  0  0  0  0  0  0
   -4.8130  -46.3600    9.3590 C   0  0  0  0  0  0  0  0  0  0  0  0
   -3.5260  -46.4740    8.7720 C   0  0  0  0  0  0  0  0  0  0  0  0
   -1.2890  -53.2330    7.5840 Cl  0  0  0  0  0  0  0  0  0  0  0  0
   -3.7050  -52.1070    6.6370 H   0  0  0  0  0  0  0  0  0  0  0  0
   -4.2050  -49.9050    5.6280 H   0  0  0  0  0  0  0  0  0  0  0  0
   -2.4320  -48.2260    5.2840 H   0  0  0  0  0  0  0  0  0  0  0  0
   -0.6650  -47.1170    4.8770 H   0  0  0  0  0  0  0  0  0  0  0  0
    1.1440  -47.0200    4.8250 H   0  0  0  0  0  0  0  0  0  0  0  0
    0.2160  -45.1920    6.1890 H   0  0  0  0  0  0  0  0  0  0  0  0
    1.2080  -46.3280    7.2130 H   0  0  0  0  0  0  0  0  0  0  0  0
   -0.7620  -45.7380    8.5040 H   0  0  0  0  0  0  0  0  0  0  0  0
   -1.1340  -47.4320    7.8270 H   0  0  0  0  0  0  0  0  0  0  0  0
   -2.7940  -47.0880    9.2840 H   0  0  0  0  0  0  0  0  0  0  0  0
   -5.5690  -44.9550    7.5270 C   0  0  0  0  0  0  0  0  0  0  0  0
   -4.2960  -45.0610    6.9070 C   0  0  0  0  0  0  0  0  0  0  0  0
   -4.0810  -44.4600    5.6330 C   0  0  0  0  0  0  0  0  0  0  0  0
   -5.0870  -43.7620    5.0110 C   0  0  0  0  0  0  0  0  0  0  0  0
   -6.3640  -43.6560    5.6260 C   0  0  0  0  0  0  0  0  0  0  0  0
   -6.6020  -44.2340    6.8500 C   0  0  0  0  0  0  0  0  0  0  0  0
   -3.1120  -44.5900    5.1490 H   0  0  0  0  0  0  0  0  0  0  0  0
   -4.9240  -43.2930    4.0430 H   0  0  0  0  0  0  0  0  0  0  0  0
   -7.1510  -43.1150    5.1070 H   0  0  0  0  0  0  0  0  0  0  0  0
   -7.5840  -44.1650    7.3150 H   0  0  0  0  0  0  0  0  0  0  0  0
   -5.0100  -46.8960   10.2900 H   0  0  0  0  0  0  0  0  0  0  0  0
   -6.7820  -45.5110    9.2460 H   0  0  0  0  0  0  0  0  0  0  0  0
  1  2  2  0  0  0  0
  2  3  1  0  0  0  0
  2  4  1  0  0  0  0
  4  5  1  0  0  0  0
  4 12  2  0  0  0  0
  5  6  1  0  0  0  0
  6  7  2  0  0  0  0
  6 11  1  0  0  0  0
  7  8  1  0  0  0  0
  7 21  1  0  0  0  0
  8  9  2  0  0  0  0
  8 22  1  0  0  0  0
  9 10  1  0  0  0  0
  9 23  1  0  0  0  0
 10 11  2  0  0  0  0
 10 24  1  0  0  0  0
 11 12  1  0  0  0  0
 12 13  1  0  0  0  0
 13 25  1  0  0  0  0
 13 26  1  0  0  0  0
 13 14  1  0  0  0  0
 14 15  1  0  0  0  0
 14 27  1  0  0  0  0
 14 28  1  0  0  0  0
 15 16  1  0  0  0  0
 15 29  1  0  0  0  0
 15 30  1  0  0  0  0
 16 17  1  0  0  0  0
 17 20  2  0  0  0  0
 17 33  1  0  0  0  0
 18 19  2  0  0  0  0
 18 32  1  0  0  0  0
 18 43  1  0  0  0  0
 19 20  1  0  0  0  0
 19 42  1  0  0  0  0
 20 31  1  0  0  0  0
 32 33  2  0  0  0  0
 32 37  1  0  0  0  0
 33 34  1  0  0  0  0
 34 35  2  0  0  0  0
 34 38  1  0  0  0  0
 35 36  1  0  0  0  0
 35 39  1  0  0  0  0
 36 37  2  0  0  0  0
 36 40  1  0  0  0  0
 37 41  1  0  0  0  0
M  CHG  1   3  -1
M  END
$$$$
