1oiy
 OpenBabel02232411153D
Structure written by MMmdl.
 49 52  0  0  0  0  0  0  0  0999 V2000
    1.9680   28.8800    6.8070 C   0  0  0  0  0  0  0  0  0  0  0  0
   -1.5540   31.4280    7.9490 C   0  0  0  0  0  0  0  0  0  0  0  0
    0.0570   25.9950    8.9490 C   0  0  0  0  0  0  0  0  0  0  0  0
   -0.7830   25.2660   10.0050 C   0  0  0  0  0  0  0  0  0  0  0  0
   -0.6320   23.7470    9.7610 C   0  0  0  0  0  0  0  0  0  0  0  0
   -1.3610   22.9360   10.8410 C   0  0  0  0  0  0  0  0  0  0  0  0
   -0.9010   23.3260   12.2540 C   0  0  0  0  0  0  0  0  0  0  0  0
   -1.0650   24.8350   12.4970 C   0  0  0  0  0  0  0  0  0  0  0  0
   -0.3350   25.6580   11.4260 C   0  0  0  0  0  0  0  0  0  0  0  0
    4.5250   25.2030    7.4650 C   0  0  0  0  0  0  0  0  0  0  0  0
    5.2910   24.8520    6.3450 C   0  0  0  0  0  0  0  0  0  0  0  0
    5.3930   25.7400    5.2630 C   0  0  0  0  0  0  0  0  0  0  0  0
    4.7000   26.9420    5.2810 C   0  0  0  0  0  0  0  0  0  0  0  0
    1.2720   27.9160    7.5290 N   0  0  0  0  0  0  0  0  0  0  0  0
    0.0650   28.2300    8.0700 C   0  0  0  0  0  0  0  0  0  0  0  0
   -0.6010   27.3210    8.7960 O   0  0  0  0  0  0  0  0  0  0  0  0
   -0.4830   29.5280    7.8880 C   0  0  0  0  0  0  0  0  0  0  0  0
   -1.6400   30.1600    8.3590 N   0  0  0  0  0  0  0  0  0  0  0  0
   -0.3450   31.6810    7.2090 N   0  0  0  0  0  0  0  0  0  0  0  0
    0.3350   30.4690    7.1400 C   0  0  0  0  0  0  0  0  0  0  0  0
    1.5370   30.1720    6.5490 N   0  0  0  0  0  0  0  0  0  0  0  0
    3.2220   28.5390    6.3110 N   0  0  0  0  0  0  0  0  0  0  0  0
    3.8820   27.2720    6.3850 C   0  0  0  0  0  0  0  0  0  0  0  0
    3.8250   26.4130    7.4950 C   0  0  0  0  0  0  0  0  0  0  0  0
   -2.2680   32.2240    8.1420 H   0  0  0  0  0  0  0  0  0  0  0  0
    1.1050   26.1540    9.2880 H   0  0  0  0  0  0  0  0  0  0  0  0
    0.0050   25.5130    7.9530 H   0  0  0  0  0  0  0  0  0  0  0  0
   -1.8580   25.5480    9.8880 H   0  0  0  0  0  0  0  0  0  0  0  0
   -1.0540   23.4890    8.7650 H   0  0  0  0  0  0  0  0  0  0  0  0
    0.4520   23.4760    9.7770 H   0  0  0  0  0  0  0  0  0  0  0  0
   -2.4550   23.1210   10.7570 H   0  0  0  0  0  0  0  0  0  0  0  0
   -1.1660   21.8490   10.6840 H   0  0  0  0  0  0  0  0  0  0  0  0
   -1.5030   22.7640   13.0050 H   0  0  0  0  0  0  0  0  0  0  0  0
    0.1720   23.0500   12.3790 H   0  0  0  0  0  0  0  0  0  0  0  0
   -2.1490   25.0940   12.5020 H   0  0  0  0  0  0  0  0  0  0  0  0
   -0.6420   25.0930   13.4970 H   0  0  0  0  0  0  0  0  0  0  0  0
    0.7630   25.4850   11.5370 H   0  0  0  0  0  0  0  0  0  0  0  0
   -0.5380   26.7400   11.5950 H   0  0  0  0  0  0  0  0  0  0  0  0
    4.4700   24.5360    8.3320 H   0  0  0  0  0  0  0  0  0  0  0  0
    6.0130   25.4970    4.3930 H   0  0  0  0  0  0  0  0  0  0  0  0
    4.8060   27.6270    4.4410 H   0  0  0  0  0  0  0  0  0  0  0  0
   -0.0950   32.5670    6.7450 H   0  0  0  0  0  0  0  0  0  0  0  0
    3.6760   29.2100    5.6420 H   0  0  0  0  0  0  0  0  0  0  0  0
    3.2390   26.6730    8.3800 H   0  0  0  0  0  0  0  0  0  0  0  0
    5.3760   22.4550    6.4090 O   0  0  0  0  0  0  0  0  0  0  0  0
    5.9580   23.5200    6.2460 C   0  0  0  0  0  0  0  0  0  0  0  0
    7.3320   23.5450    5.9800 N   0  0  0  0  0  0  0  0  0  0  0  0
    7.7860   24.4150    5.6760 H   0  0  0  0  0  0  0  0  0  0  0  0
    7.8330   22.6890    5.7220 H   0  0  0  0  0  0  0  0  0  0  0  0
  1 14  2  0  0  0  0
  1 21  1  0  0  0  0
  1 22  1  0  0  0  0
  2 18  2  0  0  0  0
  2 19  1  0  0  0  0
  2 25  1  0  0  0  0
  3  4  1  0  0  0  0
  3 16  1  0  0  0  0
  3 26  1  0  0  0  0
  3 27  1  0  0  0  0
  4  5  1  0  0  0  0
  4  9  1  0  0  0  0
  4 28  1  0  0  0  0
  5  6  1  0  0  0  0
  5 29  1  0  0  0  0
  5 30  1  0  0  0  0
  6  7  1  0  0  0  0
  6 31  1  0  0  0  0
  6 32  1  0  0  0  0
  7  8  1  0  0  0  0
  7 33  1  0  0  0  0
  7 34  1  0  0  0  0
  8  9  1  0  0  0  0
  8 35  1  0  0  0  0
  8 36  1  0  0  0  0
  9 37  1  0  0  0  0
  9 38  1  0  0  0  0
 10 11  2  0  0  0  0
 10 24  1  0  0  0  0
 10 39  1  0  0  0  0
 11 12  1  0  0  0  0
 11 46  1  0  0  0  0
 12 13  2  0  0  0  0
 12 40  1  0  0  0  0
 13 23  1  0  0  0  0
 13 41  1  0  0  0  0
 14 15  1  0  0  0  0
 15 16  1  0  0  0  0
 15 17  2  0  0  0  0
 17 18  1  0  0  0  0
 17 20  1  0  0  0  0
 19 20  1  0  0  0  0
 19 42  1  0  0  0  0
 20 21  2  0  0  0  0
 22 23  1  0  0  0  0
 22 43  1  0  0  0  0
 23 24  2  0  0  0  0
 24 44  1  0  0  0  0
 45 46  2  0  0  0  0
 46 47  1  0  0  0  0
 47 48  1  0  0  0  0
 47 49  1  0  0  0  0
M  END
$$$$
