p38a_3flw
 OpenBabel02232411163D
Structure written by MMmdl.
 49 51  0  0  0  0  0  0  0  0999 V2000
   38.2660   36.5250   17.1730 C   0  0  0  0  0  0  0  0  0  0  0  0
   37.6230   36.6760   15.9360 C   0  0  0  0  0  0  0  0  0  0  0  0
   33.9180   39.8080   27.4970 C   0  0  0  0  0  0  0  0  0  0  0  0
   35.4400   39.6470   27.6130 C   0  0  0  0  0  0  0  0  0  0  0  0
   31.8220   39.4390   26.1510 C   0  0  0  0  0  0  0  0  0  0  0  0
   34.0450   35.0790   23.7450 C   0  0  0  0  0  0  0  0  0  0  0  0
   38.0080   35.9460   19.4380 F   0  0  0  0  0  0  0  0  0  0  0  0
   37.4780   36.0780   18.2300 C   0  0  0  0  0  0  0  0  0  0  0  0
   38.3250   37.1700   14.9190 F   0  0  0  0  0  0  0  0  0  0  0  0
   36.2750   36.3760   15.7280 C   0  0  0  0  0  0  0  0  0  0  0  0
   35.5060   35.9190   16.8040 C   0  0  0  0  0  0  0  0  0  0  0  0
   36.1130   35.7640   18.0530 C   0  0  0  0  0  0  0  0  0  0  0  0
   35.3790   35.1610   19.0840 O   0  0  0  0  0  0  0  0  0  0  0  0
   35.0430   35.9910   20.1510 C   0  0  0  0  0  0  0  0  0  0  0  0
   35.0820   37.3430   20.1840 C   0  0  0  0  0  0  0  0  0  0  0  0
   34.7440   38.0140   21.4090 C   0  0  0  0  0  0  0  0  0  0  0  0
   34.7200   39.4280   21.5380 C   0  0  0  0  0  0  0  0  0  0  0  0
   34.4590   40.0520   22.6980 N   0  0  0  0  0  0  0  0  0  0  0  0
   34.5880   35.1400   21.2830 C   0  0  0  0  0  0  0  0  0  0  0  0
   34.4070   33.9430   21.2410 O   0  0  0  0  0  0  0  0  0  0  0  0
   34.3550   35.8560   22.5130 N   0  0  0  0  0  0  0  0  0  0  0  0
   34.4230   37.2540   22.5730 C   0  0  0  0  0  0  0  0  0  0  0  0
   34.1510   37.8640   23.7740 N   0  0  0  0  0  0  0  0  0  0  0  0
   34.2000   39.2430   23.8180 C   0  0  0  0  0  0  0  0  0  0  0  0
   34.0330   39.8740   25.0360 N   0  0  0  0  0  0  0  0  0  0  0  0
   33.3520   39.2080   26.1900 C   0  0  0  0  0  0  0  0  0  0  0  0
   31.1010   38.9730   24.8790 C   0  0  0  0  0  0  0  0  0  0  0  0
   31.2480   37.5710   24.6270 O   0  0  0  0  0  0  0  0  0  0  0  0
   35.8650   39.7540   28.9840 O   0  0  0  0  0  0  0  0  0  0  0  0
   39.3210   36.7830   17.3080 H   0  0  0  0  0  0  0  0  0  0  0  0
   33.4220   39.2890   28.3560 H   0  0  0  0  0  0  0  0  0  0  0  0
   33.6530   40.8930   27.5580 H   0  0  0  0  0  0  0  0  0  0  0  0
   35.7690   38.6220   27.3320 H   0  0  0  0  0  0  0  0  0  0  0  0
   35.9580   40.4320   27.0160 H   0  0  0  0  0  0  0  0  0  0  0  0
   31.3810   38.9110   27.0330 H   0  0  0  0  0  0  0  0  0  0  0  0
   31.6270   40.5340   26.2680 H   0  0  0  0  0  0  0  0  0  0  0  0
   34.5960   35.5110   24.6260 H   0  0  0  0  0  0  0  0  0  0  0  0
   32.9430   35.1170   23.9550 H   0  0  0  0  0  0  0  0  0  0  0  0
   34.3580   34.0100   23.6150 H   0  0  0  0  0  0  0  0  0  0  0  0
   35.8100   36.5090   14.7490 H   0  0  0  0  0  0  0  0  0  0  0  0
   34.4420   35.7040   16.6610 H   0  0  0  0  0  0  0  0  0  0  0  0
   35.3720   37.9520   19.3250 H   0  0  0  0  0  0  0  0  0  0  0  0
   34.9030   40.0630   20.6560 H   0  0  0  0  0  0  0  0  0  0  0  0
   33.9540   40.9120   25.0530 H   0  0  0  0  0  0  0  0  0  0  0  0
   33.5750   38.1070   26.1670 H   0  0  0  0  0  0  0  0  0  0  0  0
   29.9990   39.0970   25.0060 H   0  0  0  0  0  0  0  0  0  0  0  0
   31.4710   39.5340   23.9930 H   0  0  0  0  0  0  0  0  0  0  0  0
   32.2100   37.3780   24.5160 H   0  0  0  0  0  0  0  0  0  0  0  0
   35.5750   40.6290   29.3490 H   0  0  0  0  0  0  0  0  0  0  0  0
  1  2  2  0  0  0  0
  1  8  1  0  0  0  0
  1 30  1  0  0  0  0
  2  9  1  0  0  0  0
  2 10  1  0  0  0  0
  3  4  1  0  0  0  0
  3 26  1  0  0  0  0
  3 31  1  0  0  0  0
  3 32  1  0  0  0  0
  4 29  1  0  0  0  0
  4 33  1  0  0  0  0
  4 34  1  0  0  0  0
  5 26  1  0  0  0  0
  5 27  1  0  0  0  0
  5 35  1  0  0  0  0
  5 36  1  0  0  0  0
  6 21  1  0  0  0  0
  6 37  1  0  0  0  0
  6 38  1  0  0  0  0
  6 39  1  0  0  0  0
  7  8  1  0  0  0  0
  8 12  2  0  0  0  0
 10 11  2  0  0  0  0
 10 40  1  0  0  0  0
 11 12  1  0  0  0  0
 11 41  1  0  0  0  0
 12 13  1  0  0  0  0
 13 14  1  0  0  0  0
 14 15  2  0  0  0  0
 14 19  1  0  0  0  0
 15 16  1  0  0  0  0
 15 42  1  0  0  0  0
 16 17  2  0  0  0  0
 16 22  1  0  0  0  0
 17 18  1  0  0  0  0
 17 43  1  0  0  0  0
 18 24  2  0  0  0  0
 19 20  2  0  0  0  0
 19 21  1  0  0  0  0
 21 22  1  0  0  0  0
 22 23  2  0  0  0  0
 23 24  1  0  0  0  0
 24 25  1  0  0  0  0
 25 26  1  0  0  0  0
 25 44  1  0  0  0  0
 26 45  1  0  0  0  0
 27 28  1  0  0  0  0
 27 46  1  0  0  0  0
 27 47  1  0  0  0  0
 28 48  1  0  0  0  0
 29 49  1  0  0  0  0
M  END
$$$$
