20667(2qbp)
 OpenBabel02232411173D
Structure written by MMmdl.
 60 63  0  0  0  0  0  0  0  0999 V2000
   42.4300   18.0250   12.6580 O   0  0  0  0  0  0  0  0  0  0  0  0
   41.2880   17.7580   13.0500 C   0  0  0  0  0  0  0  0  0  0  0  0
   40.2370   18.3610   12.7440 O   0  5  0  0  0  0  0  0  0  0  0  0
   41.1020   16.5660   14.0330 C   0  0  0  0  0  0  0  0  0  0  0  0
   42.4310   15.9580   13.9730 O   0  0  0  0  0  0  0  0  0  0  0  0
   42.6350   14.9660   14.8800 C   0  0  0  0  0  0  0  0  0  0  0  0
   42.0450   13.6480   14.7540 C   0  0  0  0  0  0  0  0  0  0  0  0
   40.8940   13.2880   13.2800 Br  0  0  0  0  0  0  0  0  0  0  0  0
   42.4270   12.7500   15.7160 C   0  0  0  0  0  0  0  0  0  0  0  0
   42.0230   11.3830   15.9810 C   0  0  0  0  0  0  0  0  0  0  0  0
   42.7430   10.5450   16.8710 C   0  0  0  0  0  0  0  0  0  0  0  0
   42.2980    9.2540   17.1320 C   0  0  0  0  0  0  0  0  0  0  0  0
   41.1630    8.7180   16.5050 C   0  0  0  0  0  0  0  0  0  0  0  0
   40.4630    9.5210   15.5930 C   0  0  0  0  0  0  0  0  0  0  0  0
   39.3930    9.0460   14.7880 N   0  0  0  0  0  0  0  0  0  0  0  0
   38.5340    7.9130   15.2000 C   0  0  0  0  0  0  0  0  0  0  0  0
   37.0590    8.1480   14.7820 C   0  0  0  0  0  0  0  0  0  0  0  0
   36.8370    8.0510   13.2620 C   0  0  0  0  0  0  0  0  0  0  0  0
   37.3810    6.8010   12.6690 N   0  0  0  0  0  0  0  0  0  0  0  0
   36.3630    5.5320   12.2090 S   0  0  0  0  0  0  0  0  0  0  0  0
   36.9710    4.9020   11.0350 O   0  0  0  0  0  0  0  0  0  0  0  0
   35.0860    6.1810   11.8630 O   0  0  0  0  0  0  0  0  0  0  0  0
   36.2610    4.3100   13.4670 C   0  0  0  0  0  0  0  0  0  0  0  0
   35.1360    4.4380   14.4400 C   0  0  0  0  0  0  0  0  0  0  0  0
   35.3520    5.0390   15.6900 C   0  0  0  0  0  0  0  0  0  0  0  0
   34.3280    5.0900   16.6390 C   0  0  0  0  0  0  0  0  0  0  0  0
   33.0810    4.5260   16.3570 C   0  0  0  0  0  0  0  0  0  0  0  0
   32.8690    3.9000   15.1250 C   0  0  0  0  0  0  0  0  0  0  0  0
   33.8830    3.8640   14.1630 C   0  0  0  0  0  0  0  0  0  0  0  0
   38.7950    6.5370   13.0500 C   0  0  0  0  0  0  0  0  0  0  0  0
   39.0410    6.5940   14.5650 C   0  0  0  0  0  0  0  0  0  0  0  0
   40.8760   10.8560   15.3770 C   0  0  0  0  0  0  0  0  0  0  0  0
   43.5960   13.5460   16.7560 S   0  0  0  0  0  0  0  0  0  0  0  0
   43.5290   15.0730   15.9120 C   0  0  0  0  0  0  0  0  0  0  0  0
   44.3800   16.2630   16.3660 C   0  0  0  0  0  0  0  0  0  0  0  0
   44.9830   16.0980   17.4500 O   0  0  0  0  0  0  0  0  0  0  0  0
   44.4510   17.2510   15.6350 O   0  5  0  0  0  0  0  0  0  0  0  0
   40.3300   15.8560   13.6740 H   0  0  0  0  0  0  0  0  0  0  0  0
   40.8720   16.8990   15.0650 H   0  0  0  0  0  0  0  0  0  0  0  0
   43.6530   10.8860   17.3690 H   0  0  0  0  0  0  0  0  0  0  0  0
   42.8360    8.6200   17.8400 H   0  0  0  0  0  0  0  0  0  0  0  0
   40.8600    7.6950   16.7090 H   0  0  0  0  0  0  0  0  0  0  0  0
   38.9120    9.7460   14.2050 H   0  0  0  0  0  0  0  0  0  0  0  0
   38.5620    7.7770   16.3160 H   0  0  0  0  0  0  0  0  0  0  0  0
   36.4400    7.3810   15.3020 H   0  0  0  0  0  0  0  0  0  0  0  0
   36.7220    9.1510   15.1280 H   0  0  0  0  0  0  0  0  0  0  0  0
   35.7410    8.1230   13.0480 H   0  0  0  0  0  0  0  0  0  0  0  0
   37.3780    8.9070   12.7660 H   0  0  0  0  0  0  0  0  0  0  0  0
   36.2050    3.2840   12.9910 H   0  0  0  0  0  0  0  0  0  0  0  0
   37.2350    4.2790   14.0440 H   0  0  0  0  0  0  0  0  0  0  0  0
   36.3390    5.4340   15.9520 H   0  0  0  0  0  0  0  0  0  0  0  0
   34.5190    5.5440   17.6170 H   0  0  0  0  0  0  0  0  0  0  0  0
   32.2860    4.5460   17.1070 H   0  0  0  0  0  0  0  0  0  0  0  0
   31.9100    3.4170   14.9200 H   0  0  0  0  0  0  0  0  0  0  0  0
   33.6980    3.3620   13.2090 H   0  0  0  0  0  0  0  0  0  0  0  0
   39.1270    5.5420   12.6640 H   0  0  0  0  0  0  0  0  0  0  0  0
   39.4210    7.3460   12.5780 H   0  0  0  0  0  0  0  0  0  0  0  0
   40.1410    6.5010   14.7420 H   0  0  0  0  0  0  0  0  0  0  0  0
   38.5450    5.7430   15.0830 H   0  0  0  0  0  0  0  0  0  0  0  0
   40.2630   11.4550   14.7060 H   0  0  0  0  0  0  0  0  0  0  0  0
  1  2  2  0  0  0  0
  2  3  1  0  0  0  0
  2  4  1  0  0  0  0
  4  5  1  0  0  0  0
  4 38  1  0  0  0  0
  4 39  1  0  0  0  0
  5  6  1  0  0  0  0
  6 34  2  0  0  0  0
  6  7  1  0  0  0  0
  7  8  1  0  0  0  0
  7  9  2  0  0  0  0
  9 10  1  0  0  0  0
  9 33  1  0  0  0  0
 10 32  2  0  0  0  0
 10 11  1  0  0  0  0
 11 12  2  0  0  0  0
 11 40  1  0  0  0  0
 12 13  1  0  0  0  0
 12 41  1  0  0  0  0
 13 14  2  0  0  0  0
 13 42  1  0  0  0  0
 14 15  1  0  0  0  0
 14 32  1  0  0  0  0
 15 16  1  0  0  0  0
 15 43  1  0  0  0  0
 16 31  1  0  0  0  0
 16 17  1  0  0  0  0
 16 44  1  0  0  0  0
 17 18  1  0  0  0  0
 17 45  1  0  0  0  0
 17 46  1  0  0  0  0
 18 19  1  0  0  0  0
 18 47  1  0  0  0  0
 18 48  1  0  0  0  0
 19 20  1  0  0  0  0
 19 30  1  0  0  0  0
 20 21  2  0  0  0  0
 20 22  2  0  0  0  0
 20 23  1  0  0  0  0
 23 24  1  0  0  0  0
 23 49  1  0  0  0  0
 23 50  1  0  0  0  0
 24 29  2  0  0  0  0
 24 25  1  0  0  0  0
 25 26  2  0  0  0  0
 25 51  1  0  0  0  0
 26 27  1  0  0  0  0
 26 52  1  0  0  0  0
 27 28  2  0  0  0  0
 27 53  1  0  0  0  0
 28 29  1  0  0  0  0
 28 54  1  0  0  0  0
 29 55  1  0  0  0  0
 30 31  1  0  0  0  0
 30 56  1  0  0  0  0
 30 57  1  0  0  0  0
 31 58  1  0  0  0  0
 31 59  1  0  0  0  0
 32 60  1  0  0  0  0
 33 34  1  0  0  0  0
 34 35  1  0  0  0  0
 35 36  2  0  0  0  0
 35 37  1  0  0  0  0
M  CHG  2   3  -1  37  -1
M  END
$$$$
