p38a_3flw
 OpenBabel02232411163D
Structure written by MMmdl.
 49 51  0  0  0  0  0  0  0  0999 V2000
   38.3620   36.5970   17.0950 C   0  0  0  0  0  0  0  0  0  0  0  0
   37.7160   36.7410   15.8600 C   0  0  0  0  0  0  0  0  0  0  0  0
   33.0620   37.2900   26.4090 C   0  0  0  0  0  0  0  0  0  0  0  0
   34.5010   36.8300   26.6240 C   0  0  0  0  0  0  0  0  0  0  0  0
   33.2590   39.6380   27.4520 C   0  0  0  0  0  0  0  0  0  0  0  0
   33.2760   34.7410   23.2290 C   0  0  0  0  0  0  0  0  0  0  0  0
   38.1170   35.9930   19.3570 F   0  0  0  0  0  0  0  0  0  0  0  0
   37.5880   36.1100   18.1450 C   0  0  0  0  0  0  0  0  0  0  0  0
   38.4010   37.2710   14.8500 F   0  0  0  0  0  0  0  0  0  0  0  0
   36.3790   36.4000   15.6440 C   0  0  0  0  0  0  0  0  0  0  0  0
   35.6270   35.8960   16.7100 C   0  0  0  0  0  0  0  0  0  0  0  0
   36.2400   35.7400   17.9570 C   0  0  0  0  0  0  0  0  0  0  0  0
   35.5380   35.0660   18.9630 O   0  0  0  0  0  0  0  0  0  0  0  0
   35.0830   35.8430   20.0260 C   0  0  0  0  0  0  0  0  0  0  0  0
   35.1680   37.1850   20.1760 C   0  0  0  0  0  0  0  0  0  0  0  0
   34.6740   37.7740   21.3910 C   0  0  0  0  0  0  0  0  0  0  0  0
   34.7410   39.1690   21.6610 C   0  0  0  0  0  0  0  0  0  0  0  0
   34.3580   39.7040   22.8270 N   0  0  0  0  0  0  0  0  0  0  0  0
   34.4490   34.9270   21.0090 C   0  0  0  0  0  0  0  0  0  0  0  0
   34.3340   33.7270   20.8770 O   0  0  0  0  0  0  0  0  0  0  0  0
   33.9500   35.5730   22.1920 N   0  0  0  0  0  0  0  0  0  0  0  0
   34.0980   36.9540   22.4050 C   0  0  0  0  0  0  0  0  0  0  0  0
   33.6840   37.4750   23.6080 N   0  0  0  0  0  0  0  0  0  0  0  0
   33.8660   38.8240   23.8210 C   0  0  0  0  0  0  0  0  0  0  0  0
   33.6360   39.3910   25.0550 N   0  0  0  0  0  0  0  0  0  0  0  0
   32.8640   38.8010   26.2080 C   0  0  0  0  0  0  0  0  0  0  0  0
   32.5420   39.2310   28.7480 C   0  0  0  0  0  0  0  0  0  0  0  0
   33.3500   38.3810   29.5710 O   0  0  0  0  0  0  0  0  0  0  0  0
   34.5120   36.2080   27.9410 O   0  0  0  0  0  0  0  0  0  0  0  0
   39.4050   36.8890   17.2390 H   0  0  0  0  0  0  0  0  0  0  0  0
   32.6230   36.7470   25.5310 H   0  0  0  0  0  0  0  0  0  0  0  0
   32.4570   36.9770   27.3020 H   0  0  0  0  0  0  0  0  0  0  0  0
   34.8060   36.0630   25.8810 H   0  0  0  0  0  0  0  0  0  0  0  0
   35.2220   37.6740   26.6620 H   0  0  0  0  0  0  0  0  0  0  0  0
   34.3640   39.5820   27.6130 H   0  0  0  0  0  0  0  0  0  0  0  0
   33.0080   40.7100   27.2530 H   0  0  0  0  0  0  0  0  0  0  0  0
   32.2760   35.1860   23.4820 H   0  0  0  0  0  0  0  0  0  0  0  0
   33.1230   33.6980   22.8460 H   0  0  0  0  0  0  0  0  0  0  0  0
   33.9020   34.7030   24.1590 H   0  0  0  0  0  0  0  0  0  0  0  0
   35.9090   36.5380   14.6690 H   0  0  0  0  0  0  0  0  0  0  0  0
   34.5720   35.6430   16.5630 H   0  0  0  0  0  0  0  0  0  0  0  0
   35.6040   37.8440   19.4230 H   0  0  0  0  0  0  0  0  0  0  0  0
   35.1180   39.8620   20.8890 H   0  0  0  0  0  0  0  0  0  0  0  0
   33.7040   40.4360   25.1050 H   0  0  0  0  0  0  0  0  0  0  0  0
   31.7680   38.9760   25.9940 H   0  0  0  0  0  0  0  0  0  0  0  0
   32.3790   40.1300   29.3930 H   0  0  0  0  0  0  0  0  0  0  0  0
   31.5740   38.7180   28.5380 H   0  0  0  0  0  0  0  0  0  0  0  0
   33.7220   37.6380   29.0120 H   0  0  0  0  0  0  0  0  0  0  0  0
   35.2920   35.5810   27.9810 H   0  0  0  0  0  0  0  0  0  0  0  0
  1  2  2  0  0  0  0
  1  8  1  0  0  0  0
  1 30  1  0  0  0  0
  2  9  1  0  0  0  0
  2 10  1  0  0  0  0
  3  4  1  0  0  0  0
  3 26  1  0  0  0  0
  3 31  1  0  0  0  0
  3 32  1  0  0  0  0
  4 29  1  0  0  0  0
  4 33  1  0  0  0  0
  4 34  1  0  0  0  0
  5 26  1  0  0  0  0
  5 27  1  0  0  0  0
  5 35  1  0  0  0  0
  5 36  1  0  0  0  0
  6 21  1  0  0  0  0
  6 37  1  0  0  0  0
  6 38  1  0  0  0  0
  6 39  1  0  0  0  0
  7  8  1  0  0  0  0
  8 12  2  0  0  0  0
 10 11  2  0  0  0  0
 10 40  1  0  0  0  0
 11 12  1  0  0  0  0
 11 41  1  0  0  0  0
 12 13  1  0  0  0  0
 13 14  1  0  0  0  0
 14 15  2  0  0  0  0
 14 19  1  0  0  0  0
 15 16  1  0  0  0  0
 15 42  1  0  0  0  0
 16 17  2  0  0  0  0
 16 22  1  0  0  0  0
 17 18  1  0  0  0  0
 17 43  1  0  0  0  0
 18 24  2  0  0  0  0
 19 20  2  0  0  0  0
 19 21  1  0  0  0  0
 21 22  1  0  0  0  0
 22 23  2  0  0  0  0
 23 24  1  0  0  0  0
 24 25  1  0  0  0  0
 25 26  1  0  0  0  0
 25 44  1  0  0  0  0
 26 45  1  0  0  0  0
 27 28  1  0  0  0  0
 27 46  1  0  0  0  0
 27 47  1  0  0  0  0
 28 48  1  0  0  0  0
 29 49  1  0  0  0  0
M  END
$$$$
