p38a_2s
 OpenBabel02232411163D
Structure written by MMmdl.
 54 57  0  0  1  0  0  0  0  0999 V2000
   36.3390   35.9200   15.9400 C   0  0  0  0  0  0  0  0  0  0  0  0
   34.2710   35.0100   21.4360 C   0  0  0  0  0  0  0  0  0  0  0  0
   35.5870   35.4800   17.0250 C   0  0  0  0  0  0  0  0  0  0  0  0
   33.9100   39.1570   23.9060 C   0  0  0  0  0  0  0  0  0  0  0  0
   34.5360   37.8770   21.5460 C   0  0  0  0  0  0  0  0  0  0  0  0
   34.9670   37.1740   20.3700 C   0  0  0  0  0  0  0  0  0  0  0  0
   37.6260   36.3940   16.2230 C   0  0  0  0  0  0  0  0  0  0  0  0
   38.1790   36.4030   17.5070 C   0  0  0  0  0  0  0  0  0  0  0  0
   37.3930   35.9840   18.5850 C   0  0  0  0  0  0  0  0  0  0  0  0
   34.0590   37.1540   22.6790 C   0  0  0  0  0  0  0  0  0  0  0  0
   34.5970   39.2940   21.6670 C   0  0  0  0  0  0  0  0  0  0  0  0
   34.8740   35.8230   20.3470 C   0  0  0  0  0  0  0  0  0  0  0  0
   36.0950   35.5250   18.3400 C   0  0  0  0  0  0  0  0  0  0  0  0
   34.3690   34.9880   16.8430 F   0  0  0  0  0  0  0  0  0  0  0  0
   35.2710   34.9630   19.3230 O   0  0  0  0  0  0  0  0  0  0  0  0
   34.2950   39.9440   22.7990 N   0  0  0  0  0  0  0  0  0  0  0  0
   34.0890   33.8130   21.4050 O   0  0  0  0  0  0  0  0  0  0  0  0
   33.8870   35.7560   22.6080 N   0  0  0  0  0  0  0  0  0  0  0  0
   33.7670   37.7820   23.8600 N   0  0  0  0  0  0  0  0  0  0  0  0
   33.6090   39.8120   25.0760 N   0  0  0  0  0  0  0  0  0  0  0  0
   35.9380   35.9230   14.9230 H   0  0  0  0  0  0  0  0  0  0  0  0
   35.3780   37.7580   19.5420 H   0  0  0  0  0  0  0  0  0  0  0  0
   39.2000   36.7620   17.6700 H   0  0  0  0  0  0  0  0  0  0  0  0
   37.7860   36.0410   19.6020 H   0  0  0  0  0  0  0  0  0  0  0  0
   34.9080   39.9040   20.8020 H   0  0  0  0  0  0  0  0  0  0  0  0
   33.7730   40.8360   25.1450 H   0  0  0  0  0  0  0  0  0  0  0  0
   38.3420   36.8950   15.2190 F   0  0  0  0  0  0  0  0  0  0  0  0
   32.3850   39.2360   28.6500 C   0  0  0  0  0  0  0  0  0  0  0  0
   32.4580   39.8680   27.2540 C   0  0  0  0  0  0  0  0  0  0  0  0
   33.4620   39.0910   26.3790 C   0  0  0  0  0  0  0  0  0  0  0  0
   34.8310   38.9920   27.0870 C   0  0  0  0  0  0  0  0  0  0  0  0
   34.6490   38.4010   28.4900 C   0  0  0  0  0  0  0  0  0  0  0  0
   33.6900   39.1530   29.2680 O   0  0  0  0  0  0  0  0  0  0  0  0
   31.9390   38.2160   28.6040 H   0  0  0  0  0  0  0  0  0  0  0  0
   31.8320   39.8950   29.3590 H   0  0  0  0  0  0  0  0  0  0  0  0
   32.7780   40.9330   27.3450 H   0  0  0  0  0  0  0  0  0  0  0  0
   31.4500   39.8430   26.7760 H   0  0  0  0  0  0  0  0  0  0  0  0
   33.0610   38.0570   26.1800 H   0  0  0  0  0  0  0  0  0  0  0  0
   35.5170   38.3350   26.4990 H   0  0  0  0  0  0  0  0  0  0  0  0
   35.2950   40.0050   27.1580 H   0  0  0  0  0  0  0  0  0  0  0  0
   34.3160   37.3390   28.4350 H   0  0  0  0  0  0  0  0  0  0  0  0
   35.5790   38.5090   29.0950 H   0  0  0  0  0  0  0  0  0  0  0  0
   33.3810   35.0060   23.8000 C   0  0  0  0  0  0  0  0  0  0  0  0
   33.7560   33.9480   23.7430 H   0  0  0  0  0  0  0  0  0  0  0  0
   33.8000   35.4770   24.7410 H   0  0  0  0  0  0  0  0  0  0  0  0
   31.8390   35.0420   23.9070 C   0  0  2  0  0  0  0  0  0  0  0  0
   31.5850   34.8850   25.3150 O   0  0  0  0  0  0  0  0  0  0  0  0
   30.7590   34.3290   25.4270 H   0  0  0  0  0  0  0  0  0  0  0  0
   31.1240   33.9020   23.1400 C   0  0  0  0  0  0  0  0  0  0  0  0
   31.7090   32.9530   23.1530 H   0  0  0  0  0  0  0  0  0  0  0  0
   30.8470   34.1990   22.1090 H   0  0  0  0  0  0  0  0  0  0  0  0
   31.4260   36.0390   23.6220 H   0  0  0  0  0  0  0  0  0  0  0  0
   29.9400   33.5500   23.8850 O   0  0  0  0  0  0  0  0  0  0  0  0
   29.1940   34.1910   23.6530 H   0  0  0  0  0  0  0  0  0  0  0  0
  1  3  2  0  0  0  0
  1  7  1  0  0  0  0
  1 21  1  0  0  0  0
  2 12  1  0  0  0  0
  2 17  2  0  0  0  0
  2 18  1  0  0  0  0
  3 13  1  0  0  0  0
  3 14  1  0  0  0  0
  4 16  2  0  0  0  0
  4 19  1  0  0  0  0
  4 20  1  0  0  0  0
  5  6  1  0  0  0  0
  5 10  1  0  0  0  0
  5 11  2  0  0  0  0
  6 12  2  0  0  0  0
  6 22  1  0  0  0  0
  7  8  2  0  0  0  0
  7 27  1  0  0  0  0
  8  9  1  0  0  0  0
  8 23  1  0  0  0  0
  9 13  2  0  0  0  0
  9 24  1  0  0  0  0
 10 18  1  0  0  0  0
 10 19  2  0  0  0  0
 11 16  1  0  0  0  0
 11 25  1  0  0  0  0
 12 15  1  0  0  0  0
 13 15  1  0  0  0  0
 18 43  1  0  0  0  0
 20 26  1  0  0  0  0
 20 30  1  0  0  0  0
 28 29  1  0  0  0  0
 28 33  1  0  0  0  0
 28 34  1  0  0  0  0
 28 35  1  0  0  0  0
 29 30  1  0  0  0  0
 29 36  1  0  0  0  0
 29 37  1  0  0  0  0
 30 31  1  0  0  0  0
 30 38  1  0  0  0  0
 31 32  1  0  0  0  0
 31 39  1  0  0  0  0
 31 40  1  0  0  0  0
 32 33  1  0  0  0  0
 32 41  1  0  0  0  0
 32 42  1  0  0  0  0
 43 44  1  0  0  0  0
 43 45  1  0  0  0  0
 43 46  1  0  0  0  0
 46 47  1  0  0  0  0
 46 49  1  0  0  0  0
 46 52  1  1  0  0  0
 47 48  1  0  0  0  0
 49 50  1  0  0  0  0
 49 51  1  0  0  0  0
 49 53  1  0  0  0  0
 53 54  1  0  0  0  0
M  END
$$$$
