18639-1
 OpenBabel02232411163D
Structure written by MMmdl.
 48 49  0  0  0  0  0  0  0  0999 V2000
   23.8990   12.5780   30.3530 C   0  0  0  0  0  0  0  0  0  0  0  0
   23.4330   11.1380   30.4530 C   0  0  0  0  0  0  0  0  0  0  0  0
   22.1840   11.2430   31.2530 O   0  0  0  0  0  0  0  0  0  0  0  0
   21.5520   10.1030   31.6020 C   0  0  0  0  0  0  0  0  0  0  0  0
   22.0270    8.9160   31.1540 N   0  0  0  0  0  0  0  0  0  0  0  0
   21.2990    7.7790   31.4720 C   0  0  0  0  0  0  0  0  0  0  0  0
   20.1450    7.8150   32.2470 C   0  0  0  0  0  0  0  0  0  0  0  0
   19.6640    9.0620   32.7270 C   0  0  0  0  0  0  0  0  0  0  0  0
   18.5190    9.0990   33.4810 N   0  0  0  0  0  0  0  0  0  0  0  0
   20.3770   10.2590   32.3980 C   0  0  0  0  0  0  0  0  0  0  0  0
   19.9720   11.5570   32.7750 C   0  0  0  0  0  0  0  0  0  0  0  0
   19.6870   12.6480   33.0450 N   0  0  0  0  0  0  0  0  0  0  0  0
   21.8690    6.6120   30.9100 N   0  0  0  0  0  0  0  0  0  0  0  0
   21.2590    5.3430   30.8220 C   0  0  0  0  0  0  0  0  0  0  0  0
   20.1640    5.1040   31.2850 O   0  0  0  0  0  0  0  0  0  0  0  0
   22.0740    4.3310   30.0240 C   0  0  0  0  0  0  0  0  0  0  0  0
   23.4230    4.0270   30.6050 C   0  0  0  0  0  0  0  0  0  0  0  0
   24.5420    4.8670   30.3080 C   0  0  0  0  0  0  0  0  0  0  0  0
   24.2200    5.9170   29.4580 O   0  0  0  0  0  0  0  0  0  0  0  0
   25.2040    6.9740   29.2880 C   0  0  0  0  0  0  0  0  0  0  0  0
   25.8060    4.6040   30.8120 C   0  0  0  0  0  0  0  0  0  0  0  0
   25.9980    3.4850   31.6490 C   0  0  0  0  0  0  0  0  0  0  0  0
   27.3330    3.2070   32.1850 N   0  3  0  0  0  0  0  0  0  0  0  0
   27.4290    2.4300   33.1230 O   0  5  0  0  0  0  0  0  0  0  0  0
   28.2970    3.7580   31.6670 O   0  0  0  0  0  0  0  0  0  0  0  0
   24.9040    2.6380   31.9450 C   0  0  0  0  0  0  0  0  0  0  0  0
   23.6260    2.9150   31.4070 C   0  0  0  0  0  0  0  0  0  0  0  0
   25.2160    1.5940   32.7640 O   0  0  0  0  0  0  0  0  0  0  0  0
   24.1990    0.5700   32.9740 C   0  0  0  0  0  0  0  0  0  0  0  0
   24.7800   12.6200   29.6630 H   0  0  0  0  0  0  0  0  0  0  0  0
   23.0970   13.2300   29.9330 H   0  0  0  0  0  0  0  0  0  0  0  0
   24.2040   12.9770   31.3460 H   0  0  0  0  0  0  0  0  0  0  0  0
   23.1600   10.7080   29.4630 H   0  0  0  0  0  0  0  0  0  0  0  0
   24.1510   10.4920   31.0060 H   0  0  0  0  0  0  0  0  0  0  0  0
   19.5900    6.9010   32.4740 H   0  0  0  0  0  0  0  0  0  0  0  0
   18.0170    8.2260   33.7340 H   0  0  0  0  0  0  0  0  0  0  0  0
   18.1180    9.9830   33.7960 H   0  0  0  0  0  0  0  0  0  0  0  0
   22.7910    6.7500   30.4260 H   0  0  0  0  0  0  0  0  0  0  0  0
   21.4780    3.3820   29.9470 H   0  0  0  0  0  0  0  0  0  0  0  0
   22.2120    4.7490   28.9870 H   0  0  0  0  0  0  0  0  0  0  0  0
   25.5190    7.3780   30.2740 H   0  0  0  0  0  0  0  0  0  0  0  0
   26.0580    6.5860   28.6940 H   0  0  0  0  0  0  0  0  0  0  0  0
   24.6160    7.7280   28.7150 H   0  0  0  0  0  0  0  0  0  0  0  0
   26.6640    5.2400   30.5620 H   0  0  0  0  0  0  0  0  0  0  0  0
   22.7920    2.2420   31.6240 H   0  0  0  0  0  0  0  0  0  0  0  0
   24.7580   -0.1690   33.5970 H   0  0  0  0  0  0  0  0  0  0  0  0
   23.3390    0.9940   33.5340 H   0  0  0  0  0  0  0  0  0  0  0  0
   23.8980    0.1250   32.0010 H   0  0  0  0  0  0  0  0  0  0  0  0
  1  2  1  0  0  0  0
  1 30  1  0  0  0  0
  1 31  1  0  0  0  0
  1 32  1  0  0  0  0
  2  3  1  0  0  0  0
  2 33  1  0  0  0  0
  2 34  1  0  0  0  0
  3  4  1  0  0  0  0
  4 10  2  0  0  0  0
  4  5  1  0  0  0  0
  5  6  2  0  0  0  0
  6  7  1  0  0  0  0
  6 13  1  0  0  0  0
  7  8  2  0  0  0  0
  7 35  1  0  0  0  0
  8  9  1  0  0  0  0
  8 10  1  0  0  0  0
  9 36  1  0  0  0  0
  9 37  1  0  0  0  0
 10 11  1  0  0  0  0
 11 12  3  0  0  0  0
 13 14  1  0  0  0  0
 13 38  1  0  0  0  0
 14 15  2  0  0  0  0
 14 16  1  0  0  0  0
 16 17  1  0  0  0  0
 16 39  1  0  0  0  0
 16 40  1  0  0  0  0
 17 27  2  0  0  0  0
 17 18  1  0  0  0  0
 18 19  1  0  0  0  0
 18 21  2  0  0  0  0
 19 20  1  0  0  0  0
 20 41  1  0  0  0  0
 20 42  1  0  0  0  0
 20 43  1  0  0  0  0
 21 22  1  0  0  0  0
 21 44  1  0  0  0  0
 22 23  1  0  0  0  0
 22 26  2  0  0  0  0
 23 24  1  0  0  0  0
 23 25  2  0  0  0  0
 26 27  1  0  0  0  0
 26 28  1  0  0  0  0
 27 45  1  0  0  0  0
 28 29  1  0  0  0  0
 29 46  1  0  0  0  0
 29 47  1  0  0  0  0
 29 48  1  0  0  0  0
M  CHG  2  23   1  24  -1
M  END
$$$$
