42
                    3D
 Schrodinger Suite 2022-3.
 44 47  0  0  1  0  0  0  0  0999 V2000
    3.2560  -48.1360    7.1910 O   0  0  0  0  0  0  0  0  0  0  0  0
    2.8680  -49.0980    6.5150 C   0  0  0  0  0  0  0  0  0  0  0  0
    3.5790  -49.8870    5.8630 O   0  5  0  0  0  0  0  0  0  0  0  0
    1.3590  -49.4170    6.4750 C   0  0  0  0  0  0  0  0  0  0  0  0
   -0.4540  -50.8070    6.6510 C   0  0  0  0  0  0  0  0  0  0  0  0
   -1.3350  -51.8810    6.8610 C   0  0  0  0  0  0  0  0  0  0  0  0
   -2.6760  -51.6730    6.5740 C   0  0  0  0  0  0  0  0  0  0  0  0
   -3.1390  -50.4260    6.0930 C   0  0  0  0  0  0  0  0  0  0  0  0
   -2.2740  -49.3590    5.8890 C   0  0  0  0  0  0  0  0  0  0  0  0
   -0.9070  -49.5280    6.1650 C   0  0  0  0  0  0  0  0  0  0  0  0
    0.2560  -48.6700    6.0760 C   0  0  0  0  0  0  0  0  0  0  0  0
    0.1960  -47.2530    5.6270 C   0  0  0  0  0  0  0  0  0  0  0  0
    0.1700  -46.2490    6.7950 C   0  0  0  0  0  0  0  0  0  0  0  0
   -1.0130  -46.4100    7.7430 C   0  0  0  0  0  0  0  0  0  0  0  0
   -2.1460  -45.7510    7.0590 O   0  0  0  0  0  0  0  0  0  0  0  0
   -3.3590  -45.7690    7.6800 C   0  0  0  0  0  0  0  0  0  0  0  0
   -5.9510  -45.5960    8.7550 C   0  0  0  0  0  0  0  0  0  0  0  0
   -4.9750  -46.3250    9.3880 C   0  0  0  0  0  0  0  0  0  0  0  0
   -3.6620  -46.4220    8.8610 C   0  0  0  0  0  0  0  0  0  0  0  0
   -0.9850  -52.8430    7.2350 H   0  0  0  0  0  0  0  0  0  0  0  0
   -3.3950  -52.4800    6.7210 H   0  0  0  0  0  0  0  0  0  0  0  0
   -4.2030  -50.3100    5.8810 H   0  0  0  0  0  0  0  0  0  0  0  0
   -2.6580  -48.4070    5.5230 H   0  0  0  0  0  0  0  0  0  0  0  0
   -0.7340  -47.1070    5.0170 H   0  0  0  0  0  0  0  0  0  0  0  0
    1.0770  -47.0100    4.9850 H   0  0  0  0  0  0  0  0  0  0  0  0
    0.1450  -45.2140    6.3810 H   0  0  0  0  0  0  0  0  0  0  0  0
    1.1010  -46.3840    7.4010 H   0  0  0  0  0  0  0  0  0  0  0  0
   -0.8620  -45.8440    8.6860 H   0  0  0  0  0  0  0  0  0  0  0  0
   -1.2970  -47.4720    7.8990 H   0  0  0  0  0  0  0  0  0  0  0  0
   -2.9430  -47.0210    9.4090 H   0  0  0  0  0  0  0  0  0  0  0  0
   -5.6720  -44.9480    7.5120 C   0  0  0  0  0  0  0  0  0  0  0  0
   -4.3650  -45.0160    6.9620 C   0  0  0  0  0  0  0  0  0  0  0  0
   -4.0980  -44.4040    5.7030 C   0  0  0  0  0  0  0  0  0  0  0  0
   -5.0940  -43.7450    5.0220 C   0  0  0  0  0  0  0  0  0  0  0  0
   -6.4080  -43.6910    5.5600 C   0  0  0  0  0  0  0  0  0  0  0  0
   -6.6920  -44.2710    6.7730 C   0  0  0  0  0  0  0  0  0  0  0  0
   -3.0980  -44.4900    5.2760 H   0  0  0  0  0  0  0  0  0  0  0  0
   -4.8920  -43.2680    4.0660 H   0  0  0  0  0  0  0  0  0  0  0  0
   -7.1880  -43.1900    4.9920 H   0  0  0  0  0  0  0  0  0  0  0  0
   -7.7020  -44.2410    7.1800 H   0  0  0  0  0  0  0  0  0  0  0  0
   -5.2050  -46.8560   10.3150 H   0  0  0  0  0  0  0  0  0  0  0  0
   -6.9530  -45.5200    9.1740 H   0  0  0  0  0  0  0  0  0  0  0  0
    0.9340  -50.7100    6.8420 N   0  0  0  0  0  0  0  0  0  0  0  0
    1.5080  -51.4830    7.1560 H   0  0  0  0  0  0  0  0  0  0  0  0
  1  2  2  0  0  0  0
  2  3  1  0  0  0  0
  2  4  1  0  0  0  0
  4 11  2  0  0  0  0
  4 43  1  0  0  0  0
  5  6  1  0  0  0  0
  5 10  2  0  0  0  0
  5 43  1  0  0  0  0
  6  7  2  0  0  0  0
  6 20  1  0  0  0  0
  7  8  1  0  0  0  0
  7 21  1  0  0  0  0
  8  9  2  0  0  0  0
  8 22  1  0  0  0  0
  9 10  1  0  0  0  0
  9 23  1  0  0  0  0
 10 11  1  0  0  0  0
 11 12  1  0  0  0  0
 12 24  1  0  0  0  0
 12 25  1  0  0  0  0
 12 13  1  0  0  0  0
 13 14  1  0  0  0  0
 13 26  1  0  0  0  0
 13 27  1  0  0  0  0
 14 15  1  0  0  0  0
 14 28  1  0  0  0  0
 14 29  1  0  0  0  0
 15 16  1  0  0  0  0
 16 19  2  0  0  0  0
 16 32  1  0  0  0  0
 17 18  2  0  0  0  0
 17 31  1  0  0  0  0
 17 42  1  0  0  0  0
 18 19  1  0  0  0  0
 18 41  1  0  0  0  0
 19 30  1  0  0  0  0
 31 32  2  0  0  0  0
 31 36  1  0  0  0  0
 32 33  1  0  0  0  0
 33 34  2  0  0  0  0
 33 37  1  0  0  0  0
 34 35  1  0  0  0  0
 34 38  1  0  0  0  0
 35 36  2  0  0  0  0
 35 39  1  0  0  0  0
 36 40  1  0  0  0  0
 43 44  1  0  0  0  0
M  CHG  1   3  -1
M  END
$$$$
