p38a_2s
 OpenBabel02232411163D
Structure written by MMmdl.
 54 57  0  0  1  0  0  0  0  0999 V2000
   38.0630   36.3260   17.4210 C   0  0  0  0  0  0  0  0  0  0  0  0
   34.1400   35.0830   21.4750 C   0  0  0  0  0  0  0  0  0  0  0  0
   37.2690   35.9190   18.4900 C   0  0  0  0  0  0  0  0  0  0  0  0
   33.5190   39.2890   23.7780 C   0  0  0  0  0  0  0  0  0  0  0  0
   34.2990   37.9540   21.4910 C   0  0  0  0  0  0  0  0  0  0  0  0
   34.7760   37.2300   20.3460 C   0  0  0  0  0  0  0  0  0  0  0  0
   37.4250   36.4310   16.1770 C   0  0  0  0  0  0  0  0  0  0  0  0
   36.0760   36.1310   15.9780 C   0  0  0  0  0  0  0  0  0  0  0  0
   35.3030   35.7180   17.0690 C   0  0  0  0  0  0  0  0  0  0  0  0
   33.7410   37.2620   22.6040 C   0  0  0  0  0  0  0  0  0  0  0  0
   34.3950   39.3700   21.5970 C   0  0  0  0  0  0  0  0  0  0  0  0
   34.7270   35.8780   20.3640 C   0  0  0  0  0  0  0  0  0  0  0  0
   35.9050   35.5960   18.3240 C   0  0  0  0  0  0  0  0  0  0  0  0
   37.7990   35.8240   19.7010 F   0  0  0  0  0  0  0  0  0  0  0  0
   35.1840   35.0070   19.3740 O   0  0  0  0  0  0  0  0  0  0  0  0
   34.0320   40.0420   22.6960 N   0  0  0  0  0  0  0  0  0  0  0  0
   34.0840   33.8700   21.5200 O   0  0  0  0  0  0  0  0  0  0  0  0
   33.6030   35.8570   22.5640 N   0  0  0  0  0  0  0  0  0  0  0  0
   33.3640   37.9190   23.7480 N   0  0  0  0  0  0  0  0  0  0  0  0
   33.1350   40.0210   24.8760 N   0  0  0  0  0  0  0  0  0  0  0  0
   39.1180   36.5910   17.5480 H   0  0  0  0  0  0  0  0  0  0  0  0
   35.1800   37.8010   19.5050 H   0  0  0  0  0  0  0  0  0  0  0  0
   35.6140   36.2320   14.9910 H   0  0  0  0  0  0  0  0  0  0  0  0
   34.2360   35.5080   16.9320 H   0  0  0  0  0  0  0  0  0  0  0  0
   34.7880   39.9610   20.7510 H   0  0  0  0  0  0  0  0  0  0  0  0
   33.3980   41.0290   24.9050 H   0  0  0  0  0  0  0  0  0  0  0  0
   38.1390   36.8740   15.1440 F   0  0  0  0  0  0  0  0  0  0  0  0
   33.3000   38.2600   28.3010 C   0  0  0  0  0  0  0  0  0  0  0  0
   33.8120   38.7320   26.9330 C   0  0  0  0  0  0  0  0  0  0  0  0
   32.6910   39.5030   26.2060 C   0  0  0  0  0  0  0  0  0  0  0  0
   31.4120   38.6520   26.1190 C   0  0  0  0  0  0  0  0  0  0  0  0
   31.0150   38.1810   27.5240 C   0  0  0  0  0  0  0  0  0  0  0  0
   32.0950   37.4750   28.1770 O   0  0  0  0  0  0  0  0  0  0  0  0
   33.1020   39.1290   28.9720 H   0  0  0  0  0  0  0  0  0  0  0  0
   34.0100   37.5400   28.7720 H   0  0  0  0  0  0  0  0  0  0  0  0
   34.1330   37.8500   26.3290 H   0  0  0  0  0  0  0  0  0  0  0  0
   34.6970   39.3980   27.0810 H   0  0  0  0  0  0  0  0  0  0  0  0
   32.4610   40.4440   26.7940 H   0  0  0  0  0  0  0  0  0  0  0  0
   30.5860   39.2540   25.6750 H   0  0  0  0  0  0  0  0  0  0  0  0
   31.5790   37.7580   25.4680 H   0  0  0  0  0  0  0  0  0  0  0  0
   30.7050   39.0330   28.1680 H   0  0  0  0  0  0  0  0  0  0  0  0
   30.2230   37.4000   27.4750 H   0  0  0  0  0  0  0  0  0  0  0  0
   32.9370   35.1410   23.6960 C   0  0  0  0  0  0  0  0  0  0  0  0
   33.6270   34.3280   24.0520 H   0  0  0  0  0  0  0  0  0  0  0  0
   32.7700   35.8570   24.5600 H   0  0  0  0  0  0  0  0  0  0  0  0
   31.5520   34.5730   23.3110 C   0  0  2  0  0  0  0  0  0  0  0  0
   30.6180   35.4200   24.0060 O   0  0  0  0  0  0  0  0  0  0  0  0
   29.6860   35.2220   23.7190 H   0  0  0  0  0  0  0  0  0  0  0  0
   31.3730   33.1130   23.7950 C   0  0  0  0  0  0  0  0  0  0  0  0
   30.3050   32.7980   23.7250 H   0  0  0  0  0  0  0  0  0  0  0  0
   31.7520   32.9710   24.8350 H   0  0  0  0  0  0  0  0  0  0  0  0
   31.3420   34.6390   22.2220 H   0  0  0  0  0  0  0  0  0  0  0  0
   32.0640   32.2120   22.9220 O   0  0  0  0  0  0  0  0  0  0  0  0
   32.9280   32.6260   22.6570 H   0  0  0  0  0  0  0  0  0  0  0  0
  1  3  2  0  0  0  0
  1  7  1  0  0  0  0
  1 21  1  0  0  0  0
  2 12  1  0  0  0  0
  2 17  2  0  0  0  0
  2 18  1  0  0  0  0
  3 13  1  0  0  0  0
  3 14  1  0  0  0  0
  4 16  2  0  0  0  0
  4 19  1  0  0  0  0
  4 20  1  0  0  0  0
  5  6  1  0  0  0  0
  5 10  1  0  0  0  0
  5 11  2  0  0  0  0
  6 12  2  0  0  0  0
  6 22  1  0  0  0  0
  7  8  2  0  0  0  0
  7 27  1  0  0  0  0
  8  9  1  0  0  0  0
  8 23  1  0  0  0  0
  9 13  2  0  0  0  0
  9 24  1  0  0  0  0
 10 18  1  0  0  0  0
 10 19  2  0  0  0  0
 11 16  1  0  0  0  0
 11 25  1  0  0  0  0
 12 15  1  0  0  0  0
 13 15  1  0  0  0  0
 18 43  1  0  0  0  0
 20 26  1  0  0  0  0
 20 30  1  0  0  0  0
 28 29  1  0  0  0  0
 28 33  1  0  0  0  0
 28 34  1  0  0  0  0
 28 35  1  0  0  0  0
 29 30  1  0  0  0  0
 29 36  1  0  0  0  0
 29 37  1  0  0  0  0
 30 31  1  0  0  0  0
 30 38  1  0  0  0  0
 31 32  1  0  0  0  0
 31 39  1  0  0  0  0
 31 40  1  0  0  0  0
 32 33  1  0  0  0  0
 32 41  1  0  0  0  0
 32 42  1  0  0  0  0
 43 44  1  0  0  0  0
 43 45  1  0  0  0  0
 43 46  1  0  0  0  0
 46 47  1  0  0  0  0
 46 49  1  0  0  0  0
 46 52  1  1  0  0  0
 47 48  1  0  0  0  0
 49 50  1  0  0  0  0
 49 51  1  0  0  0  0
 49 53  1  0  0  0  0
 53 54  1  0  0  0  0
M  END
$$$$
