p38a_2ee
 OpenBabel02232411163D
Structure written by MMmdl.
 52 55  0  0  0  0  0  0  0  0999 V2000
   38.2980   36.5660   17.1250 C   0  0  0  0  0  0  0  0  0  0  0  0
   34.4140   35.0090   21.0740 C   0  0  0  0  0  0  0  0  0  0  0  0
   37.5050   36.0950   18.1680 C   0  0  0  0  0  0  0  0  0  0  0  0
   33.8240   38.9740   23.7840 C   0  0  0  0  0  0  0  0  0  0  0  0
   34.6080   37.8700   21.3770 C   0  0  0  0  0  0  0  0  0  0  0  0
   35.0700   37.2570   20.1620 C   0  0  0  0  0  0  0  0  0  0  0  0
   37.6600   36.7420   15.8890 C   0  0  0  0  0  0  0  0  0  0  0  0
   36.3130   36.4490   15.6680 C   0  0  0  0  0  0  0  0  0  0  0  0
   35.5410   35.9610   16.7280 C   0  0  0  0  0  0  0  0  0  0  0  0
   34.0700   37.0660   22.4250 C   0  0  0  0  0  0  0  0  0  0  0  0
   34.6760   39.2700   21.6160 C   0  0  0  0  0  0  0  0  0  0  0  0
   34.9980   35.9110   20.0460 C   0  0  0  0  0  0  0  0  0  0  0  0
   36.1450   35.7740   17.9750 C   0  0  0  0  0  0  0  0  0  0  0  0
   33.3380   34.8700   23.3540 C   0  0  0  0  0  0  0  0  0  0  0  0
   38.0250   35.9450   19.3790 F   0  0  0  0  0  0  0  0  0  0  0  0
   35.4210   35.1200   18.9790 O   0  0  0  0  0  0  0  0  0  0  0  0
   34.3120   39.8340   22.7770 N   0  0  0  0  0  0  0  0  0  0  0  0
   34.3140   33.8040   20.9760 O   0  0  0  0  0  0  0  0  0  0  0  0
   33.9490   35.6760   22.2590 N   0  0  0  0  0  0  0  0  0  0  0  0
   33.6700   37.6100   23.6190 N   0  0  0  0  0  0  0  0  0  0  0  0
   33.5050   39.5340   24.9970 N   0  0  0  0  0  0  0  0  0  0  0  0
   39.3510   36.8220   17.2720 H   0  0  0  0  0  0  0  0  0  0  0  0
   35.4710   37.9030   19.3780 H   0  0  0  0  0  0  0  0  0  0  0  0
   35.8500   36.6100   14.6920 H   0  0  0  0  0  0  0  0  0  0  0  0
   34.4790   35.7450   16.5760 H   0  0  0  0  0  0  0  0  0  0  0  0
   35.0390   39.9430   20.8220 H   0  0  0  0  0  0  0  0  0  0  0  0
   33.9560   34.9610   24.2880 H   0  0  0  0  0  0  0  0  0  0  0  0
   32.3040   35.2510   23.5750 H   0  0  0  0  0  0  0  0  0  0  0  0
   33.2750   33.7930   23.0550 H   0  0  0  0  0  0  0  0  0  0  0  0
   33.6030   40.5580   25.1300 H   0  0  0  0  0  0  0  0  0  0  0  0
   38.3670   37.2520   14.8840 F   0  0  0  0  0  0  0  0  0  0  0  0
   33.2800   40.3950   28.0330 C   0  0  0  0  0  0  0  0  0  0  0  0
   32.2230   39.7690   27.1000 C   0  0  0  0  0  0  0  0  0  0  0  0
   32.8220   38.7670   26.0900 C   0  0  0  0  0  0  0  0  0  0  0  0
   33.7710   37.7750   26.7940 C   0  0  0  0  0  0  0  0  0  0  0  0
   34.7900   38.4650   27.7140 C   0  0  0  0  0  0  0  0  0  0  0  0
   34.1340   39.3760   28.6980 N   0  0  0  0  0  0  0  0  0  0  0  0
   32.7610   41.0400   28.7850 H   0  0  0  0  0  0  0  0  0  0  0  0
   33.9600   41.0560   27.4300 H   0  0  0  0  0  0  0  0  0  0  0  0
   31.7100   40.5930   26.5480 H   0  0  0  0  0  0  0  0  0  0  0  0
   31.4550   39.2330   27.7080 H   0  0  0  0  0  0  0  0  0  0  0  0
   31.9740   38.1840   25.6250 H   0  0  0  0  0  0  0  0  0  0  0  0
   33.1340   37.0670   27.3810 H   0  0  0  0  0  0  0  0  0  0  0  0
   34.3230   37.1700   26.0320 H   0  0  0  0  0  0  0  0  0  0  0  0
   35.3760   37.6860   28.2650 H   0  0  0  0  0  0  0  0  0  0  0  0
   35.4870   39.0950   27.0980 H   0  0  0  0  0  0  0  0  0  0  0  0
   33.8770   38.9220   30.0110 C   0  0  0  0  0  0  0  0  0  0  0  0
   34.4480   37.9110   30.4110 O   0  0  0  0  0  0  0  0  0  0  0  0
   33.0190   39.7600   30.9120 C   0  0  0  0  0  0  0  0  0  0  0  0
   31.9530   39.7680   30.5690 H   0  0  0  0  0  0  0  0  0  0  0  0
   33.0330   39.3660   31.9590 H   0  0  0  0  0  0  0  0  0  0  0  0
   33.3720   40.8240   30.9540 H   0  0  0  0  0  0  0  0  0  0  0  0
  1  3  2  0  0  0  0
  1  7  1  0  0  0  0
  1 22  1  0  0  0  0
  2 12  1  0  0  0  0
  2 18  2  0  0  0  0
  2 19  1  0  0  0  0
  3 13  1  0  0  0  0
  3 15  1  0  0  0  0
  4 17  2  0  0  0  0
  4 20  1  0  0  0  0
  4 21  1  0  0  0  0
  5  6  1  0  0  0  0
  5 10  1  0  0  0  0
  5 11  2  0  0  0  0
  6 12  2  0  0  0  0
  6 23  1  0  0  0  0
  7  8  2  0  0  0  0
  7 31  1  0  0  0  0
  8  9  1  0  0  0  0
  8 24  1  0  0  0  0
  9 13  2  0  0  0  0
  9 25  1  0  0  0  0
 10 19  1  0  0  0  0
 10 20  2  0  0  0  0
 11 17  1  0  0  0  0
 11 26  1  0  0  0  0
 12 16  1  0  0  0  0
 13 16  1  0  0  0  0
 14 19  1  0  0  0  0
 14 27  1  0  0  0  0
 14 28  1  0  0  0  0
 14 29  1  0  0  0  0
 21 30  1  0  0  0  0
 21 34  1  0  0  0  0
 32 33  1  0  0  0  0
 32 37  1  0  0  0  0
 32 38  1  0  0  0  0
 32 39  1  0  0  0  0
 33 34  1  0  0  0  0
 33 40  1  0  0  0  0
 33 41  1  0  0  0  0
 34 35  1  0  0  0  0
 34 42  1  0  0  0  0
 35 36  1  0  0  0  0
 35 43  1  0  0  0  0
 35 44  1  0  0  0  0
 36 37  1  0  0  0  0
 36 45  1  0  0  0  0
 36 46  1  0  0  0  0
 37 47  1  0  0  0  0
 47 48  2  0  0  0  0
 47 49  1  0  0  0  0
 49 50  1  0  0  0  0
 49 51  1  0  0  0  0
 49 52  1  0  0  0  0
M  END
$$$$
