CAT-4b
                    3D
 Schrodinger Suite 2022-3.
 50 53  0  0  1  0  0  0  0  0999 V2000
   15.0520    4.7680    1.6550 C   0  0  0  0  0  0  0  0  0  0  0  0
   15.5840    3.5850    1.0040 O   0  0  0  0  0  0  0  0  0  0  0  0
   15.1850    3.3150   -0.2830 C   0  0  0  0  0  0  0  0  0  0  0  0
   14.5270    4.2040   -1.1450 C   0  0  0  0  0  0  0  0  0  0  0  0
   14.1800    3.7560   -2.4220 C   0  0  0  0  0  0  0  0  0  0  0  0
   14.4690    2.4510   -2.8320 C   0  0  0  0  0  0  0  0  0  0  0  0
   15.1340    1.5730   -1.9600 C   0  0  0  0  0  0  0  0  0  0  0  0
   15.3930    0.1690   -2.3600 C   0  0  0  0  0  0  0  0  0  0  0  0
   15.9460   -0.1550   -3.6120 C   0  0  0  0  0  0  0  0  0  0  0  0
   16.1520   -1.4900   -3.9590 C   0  0  0  0  0  0  0  0  0  0  0  0
   15.8150   -2.5260   -3.0770 C   0  0  0  0  0  0  0  0  0  0  0  0
   15.2660   -2.2100   -1.8310 C   0  0  0  0  0  0  0  0  0  0  0  0
   14.8140   -3.2850   -0.8600 C   0  0  1  0  0  0  0  0  0  0  0  0
   15.2120   -4.7140   -1.1740 C   0  0  0  0  0  0  0  0  0  0  0  0
   16.5330   -5.1160   -0.9150 C   0  0  0  0  0  0  0  0  0  0  0  0
   16.9010   -6.4540   -1.0660 C   0  0  0  0  0  0  0  0  0  0  0  0
   15.9570   -7.3980   -1.4830 C   0  0  0  0  0  0  0  0  0  0  0  0
   14.6620   -6.9870   -1.8100 C   0  0  0  0  0  0  0  0  0  0  0  0
   14.2870   -5.6480   -1.6610 C   0  0  0  0  0  0  0  0  0  0  0  0
   15.2950   -2.9310    0.5330 N   0  3  0  0  0  0  0  0  0  0  0  0
   14.2430   -2.7890    1.4210 C   0  0  0  0  0  0  0  0  0  0  0  0
   14.3910   -2.6570    2.7700 N   0  0  0  0  0  0  0  0  0  0  0  0
   13.0280   -2.8900    0.7340 N   0  0  0  0  0  0  0  0  0  0  0  0
   11.7500   -2.5350    1.3820 C   0  0  0  0  0  0  0  0  0  0  0  0
   13.2590   -3.1330   -0.6960 C   0  0  0  0  0  0  0  0  0  0  0  0
   12.3680   -3.1660   -1.4850 O   0  0  0  0  0  0  0  0  0  0  0  0
   15.0600   -0.8660   -1.4770 C   0  0  0  0  0  0  0  0  0  0  0  0
   15.5070    2.0050   -0.6840 C   0  0  0  0  0  0  0  0  0  0  0  0
   15.3630    4.5800    2.7110 H   0  0  0  0  0  0  0  0  0  0  0  0
   15.5270    5.6720    1.2240 H   0  0  0  0  0  0  0  0  0  0  0  0
   13.9520    4.7950    1.5460 H   0  0  0  0  0  0  0  0  0  0  0  0
   14.2770    5.2230   -0.8510 H   0  0  0  0  0  0  0  0  0  0  0  0
   13.6650    4.4370   -3.1100 H   0  0  0  0  0  0  0  0  0  0  0  0
   14.1650    2.1150   -3.8260 H   0  0  0  0  0  0  0  0  0  0  0  0
   16.2200    0.6380   -4.3190 H   0  0  0  0  0  0  0  0  0  0  0  0
   16.5860   -1.7300   -4.9330 H   0  0  0  0  0  0  0  0  0  0  0  0
   15.9800   -3.5660   -3.3680 H   0  0  0  0  0  0  0  0  0  0  0  0
   17.2750   -4.3880   -0.5820 H   0  0  0  0  0  0  0  0  0  0  0  0
   17.9240   -6.7600   -0.8290 H   0  0  0  0  0  0  0  0  0  0  0  0
   16.2270   -8.4560   -1.5340 H   0  0  0  0  0  0  0  0  0  0  0  0
   13.9300   -7.7180   -2.1720 H   0  0  0  0  0  0  0  0  0  0  0  0
   13.2710   -5.3510   -1.9320 H   0  0  0  0  0  0  0  0  0  0  0  0
   16.2650   -3.1390    0.8840 H   0  0  0  0  0  0  0  0  0  0  0  0
   13.6680   -2.1660    3.3520 H   0  0  0  0  0  0  0  0  0  0  0  0
   10.8950   -2.7880    0.7000 H   0  0  0  0  0  0  0  0  0  0  0  0
   11.6350   -3.1120    2.3410 H   0  0  0  0  0  0  0  0  0  0  0  0
   11.7480   -1.4360    1.6100 H   0  0  0  0  0  0  0  0  0  0  0  0
   14.6360   -0.6280   -0.5010 H   0  0  0  0  0  0  0  0  0  0  0  0
   16.0170    1.3370    0.0070 H   0  0  0  0  0  0  0  0  0  0  0  0
   15.3650   -2.5290    3.1590 H   0  0  0  0  0  0  0  0  0  0  0  0
  1  2  1  0  0  0  0
  1 29  1  0  0  0  0
  1 30  1  0  0  0  0
  1 31  1  0  0  0  0
  2  3  1  0  0  0  0
  3  4  2  0  0  0  0
  3 28  1  0  0  0  0
  4  5  1  0  0  0  0
  4 32  1  0  0  0  0
  5  6  2  0  0  0  0
  5 33  1  0  0  0  0
  6  7  1  0  0  0  0
  6 34  1  0  0  0  0
  7  8  1  0  0  0  0
  7 28  2  0  0  0  0
  8  9  2  0  0  0  0
  8 27  1  0  0  0  0
  9 10  1  0  0  0  0
  9 35  1  0  0  0  0
 10 11  2  0  0  0  0
 10 36  1  0  0  0  0
 11 12  1  0  0  0  0
 11 37  1  0  0  0  0
 12 13  1  0  0  0  0
 12 27  2  0  0  0  0
 13 14  1  0  0  0  0
 13 20  1  0  0  0  0
 13 25  1  0  0  0  0
 14 15  2  0  0  0  0
 14 19  1  0  0  0  0
 15 16  1  0  0  0  0
 15 38  1  0  0  0  0
 16 17  2  0  0  0  0
 16 39  1  0  0  0  0
 17 18  1  0  0  0  0
 17 40  1  0  0  0  0
 18 19  2  0  0  0  0
 18 41  1  0  0  0  0
 19 42  1  0  0  0  0
 20 21  2  0  0  0  0
 20 43  1  0  0  0  0
 21 22  1  0  0  0  0
 21 23  1  0  0  0  0
 22 44  1  0  0  0  0
 22 50  1  0  0  0  0
 23 24  1  0  0  0  0
 23 25  1  0  0  0  0
 24 45  1  0  0  0  0
 24 46  1  0  0  0  0
 24 47  1  0  0  0  0
 25 26  2  0  0  0  0
 27 48  1  0  0  0  0
 28 49  1  0  0  0  0
M  CHG  1  20   1
M  END
$$$$
