18633-1
 OpenBabel02232411163D
Structure written by MMmdl.
 42 43  0  0  0  0  0  0  0  0999 V2000
   23.1980   10.8670   29.0570 C   0  0  0  0  0  0  0  0  0  0  0  0
   23.4820   11.0790   30.5290 C   0  0  0  0  0  0  0  0  0  0  0  0
   22.2200   11.1510   31.2950 O   0  0  0  0  0  0  0  0  0  0  0  0
   21.5750   10.0120   31.6290 C   0  0  0  0  0  0  0  0  0  0  0  0
   22.0480    8.8210   31.1960 N   0  0  0  0  0  0  0  0  0  0  0  0
   21.3110    7.6870   31.5060 C   0  0  0  0  0  0  0  0  0  0  0  0
   20.1520    7.7300   32.2740 C   0  0  0  0  0  0  0  0  0  0  0  0
   19.6730    8.9840   32.7410 C   0  0  0  0  0  0  0  0  0  0  0  0
   18.5170    9.0350   33.4780 N   0  0  0  0  0  0  0  0  0  0  0  0
   20.3950   10.1770   32.4140 C   0  0  0  0  0  0  0  0  0  0  0  0
   19.9960   11.4780   32.7880 C   0  0  0  0  0  0  0  0  0  0  0  0
   19.7200   12.5720   33.0540 N   0  0  0  0  0  0  0  0  0  0  0  0
   21.8750    6.5260   30.9270 N   0  0  0  0  0  0  0  0  0  0  0  0
   21.2890    5.2360   30.8600 C   0  0  0  0  0  0  0  0  0  0  0  0
   20.2450    4.9700   31.4160 O   0  0  0  0  0  0  0  0  0  0  0  0
   22.0580    4.2680   29.9740 C   0  0  0  0  0  0  0  0  0  0  0  0
   23.4000    3.8950   30.5380 C   0  0  0  0  0  0  0  0  0  0  0  0
   23.5170    2.8010   31.4200 C   0  0  0  0  0  0  0  0  0  0  0  0
   24.7490    2.4510   31.9570 C   0  0  0  0  0  0  0  0  0  0  0  0
   25.8920    3.1950   31.5880 C   0  0  0  0  0  0  0  0  0  0  0  0
   25.8010    4.2700   30.6980 C   0  0  0  0  0  0  0  0  0  0  0  0
   24.5480    4.6110   30.1780 C   0  0  0  0  0  0  0  0  0  0  0  0
   27.0440    2.7360   32.1850 O   0  0  0  0  0  0  0  0  0  0  0  0
   28.2950    3.3830   31.8320 C   0  0  0  0  0  0  0  0  0  0  0  0
   22.8370    9.8300   28.8580 H   0  0  0  0  0  0  0  0  0  0  0  0
   22.4390   11.5890   28.6820 H   0  0  0  0  0  0  0  0  0  0  0  0
   24.1400   11.0210   28.4740 H   0  0  0  0  0  0  0  0  0  0  0  0
   23.8760   12.1030   30.7400 H   0  0  0  0  0  0  0  0  0  0  0  0
   24.1320   10.2820   30.9550 H   0  0  0  0  0  0  0  0  0  0  0  0
   19.5940    6.8210   32.5050 H   0  0  0  0  0  0  0  0  0  0  0  0
   18.0190    8.1680   33.7560 H   0  0  0  0  0  0  0  0  0  0  0  0
   18.1260    9.9240   33.7920 H   0  0  0  0  0  0  0  0  0  0  0  0
   22.7810    6.6790   30.4400 H   0  0  0  0  0  0  0  0  0  0  0  0
   21.4400    3.3430   29.8400 H   0  0  0  0  0  0  0  0  0  0  0  0
   22.1880    4.7460   28.9670 H   0  0  0  0  0  0  0  0  0  0  0  0
   22.6360    2.2090   31.6820 H   0  0  0  0  0  0  0  0  0  0  0  0
   24.8410    1.6060   32.6450 H   0  0  0  0  0  0  0  0  0  0  0  0
   26.6740    4.8480   30.3910 H   0  0  0  0  0  0  0  0  0  0  0  0
   24.4930    5.4470   29.4740 H   0  0  0  0  0  0  0  0  0  0  0  0
   29.0290    2.8130   32.4490 H   0  0  0  0  0  0  0  0  0  0  0  0
   28.5000    3.2560   30.7460 H   0  0  0  0  0  0  0  0  0  0  0  0
   28.2700    4.4540   32.1240 H   0  0  0  0  0  0  0  0  0  0  0  0
  1  2  1  0  0  0  0
  1 25  1  0  0  0  0
  1 26  1  0  0  0  0
  1 27  1  0  0  0  0
  2  3  1  0  0  0  0
  2 28  1  0  0  0  0
  2 29  1  0  0  0  0
  3  4  1  0  0  0  0
  4 10  2  0  0  0  0
  4  5  1  0  0  0  0
  5  6  2  0  0  0  0
  6  7  1  0  0  0  0
  6 13  1  0  0  0  0
  7  8  2  0  0  0  0
  7 30  1  0  0  0  0
  8  9  1  0  0  0  0
  8 10  1  0  0  0  0
  9 31  1  0  0  0  0
  9 32  1  0  0  0  0
 10 11  1  0  0  0  0
 11 12  3  0  0  0  0
 13 14  1  0  0  0  0
 13 33  1  0  0  0  0
 14 15  2  0  0  0  0
 14 16  1  0  0  0  0
 16 17  1  0  0  0  0
 16 34  1  0  0  0  0
 16 35  1  0  0  0  0
 17 22  2  0  0  0  0
 17 18  1  0  0  0  0
 18 19  2  0  0  0  0
 18 36  1  0  0  0  0
 19 20  1  0  0  0  0
 19 37  1  0  0  0  0
 20 21  2  0  0  0  0
 20 23  1  0  0  0  0
 21 22  1  0  0  0  0
 21 38  1  0  0  0  0
 22 39  1  0  0  0  0
 23 24  1  0  0  0  0
 24 40  1  0  0  0  0
 24 41  1  0  0  0  0
 24 42  1  0  0  0  0
M  END
$$$$
