18652-1
 OpenBabel02232411163D
Structure written by MMmdl.
 55 56  0  0  0  0  0  0  0  0999 V2000
   23.2520   10.4810   28.9650 C   0  0  0  0  0  0  0  0  0  0  0  0
   23.5870   10.9580   30.3680 C   0  0  0  0  0  0  0  0  0  0  0  0
   24.0900   12.3960   30.4120 C   0  0  0  0  0  0  0  0  0  0  0  0
   22.3310   11.0640   31.1820 O   0  0  0  0  0  0  0  0  0  0  0  0
   21.6930    9.9510   31.5850 C   0  0  0  0  0  0  0  0  0  0  0  0
   22.1680    8.7340   31.2210 N   0  0  0  0  0  0  0  0  0  0  0  0
   21.4180    7.6240   31.5680 C   0  0  0  0  0  0  0  0  0  0  0  0
   20.2500    7.7090   32.3200 C   0  0  0  0  0  0  0  0  0  0  0  0
   19.7740    8.9830   32.7290 C   0  0  0  0  0  0  0  0  0  0  0  0
   18.6080    9.0670   33.4500 N   0  0  0  0  0  0  0  0  0  0  0  0
   20.5090   10.1540   32.3590 C   0  0  0  0  0  0  0  0  0  0  0  0
   20.1130   11.4700   32.6820 C   0  0  0  0  0  0  0  0  0  0  0  0
   19.8320   12.5710   32.9140 N   0  0  0  0  0  0  0  0  0  0  0  0
   21.9580    6.4220   31.0420 N   0  0  0  0  0  0  0  0  0  0  0  0
   21.2520    5.2050   30.9280 C   0  0  0  0  0  0  0  0  0  0  0  0
   20.1660    5.0280   31.4380 O   0  0  0  0  0  0  0  0  0  0  0  0
   21.9190    4.1720   30.0360 C   0  0  0  0  0  0  0  0  0  0  0  0
   23.2830    3.7140   30.4600 C   0  0  0  0  0  0  0  0  0  0  0  0
   24.4420    4.3820   29.9600 C   0  0  0  0  0  0  0  0  0  0  0  0
   24.1320    5.5180   29.2160 O   0  0  0  0  0  0  0  0  0  0  0  0
   25.1940    6.4970   29.0510 C   0  0  0  0  0  0  0  0  0  0  0  0
   25.7150    3.8690   30.1630 C   0  0  0  0  0  0  0  0  0  0  0  0
   25.9000    2.7020   30.9330 C   0  0  0  0  0  0  0  0  0  0  0  0
   27.5290    2.0720   31.0570 S   0  0  0  0  0  0  0  0  0  0  0  0
   27.4700    0.7820   31.7880 O   0  0  0  0  0  0  0  0  0  0  0  0
   28.3920    3.0420   31.7730 O   0  0  0  0  0  0  0  0  0  0  0  0
   28.0610    1.8260   29.4230 C   0  0  0  0  0  0  0  0  0  0  0  0
   24.7750    2.1100   31.5230 C   0  0  0  0  0  0  0  0  0  0  0  0
   23.4640    2.5960   31.2540 C   0  0  0  0  0  0  0  0  0  0  0  0
   25.0360    1.0620   32.3620 O   0  0  0  0  0  0  0  0  0  0  0  0
   23.9070    0.3580   32.9560 C   0  0  0  0  0  0  0  0  0  0  0  0
   22.8930    9.4260   28.9730 H   0  0  0  0  0  0  0  0  0  0  0  0
   22.4760   11.1220   28.4920 H   0  0  0  0  0  0  0  0  0  0  0  0
   24.1710   10.5280   28.3320 H   0  0  0  0  0  0  0  0  0  0  0  0
   24.2680   10.2550   30.9000 H   0  0  0  0  0  0  0  0  0  0  0  0
   24.2900   12.7220   31.4550 H   0  0  0  0  0  0  0  0  0  0  0  0
   25.0410   12.4610   29.8270 H   0  0  0  0  0  0  0  0  0  0  0  0
   23.3540   13.0940   29.9500 H   0  0  0  0  0  0  0  0  0  0  0  0
   19.6800    6.8150   32.5830 H   0  0  0  0  0  0  0  0  0  0  0  0
   18.0880    8.2120   33.7250 H   0  0  0  0  0  0  0  0  0  0  0  0
   18.2150    9.9670   33.7250 H   0  0  0  0  0  0  0  0  0  0  0  0
   22.8750    6.5080   30.5450 H   0  0  0  0  0  0  0  0  0  0  0  0
   21.2450    3.2780   29.9680 H   0  0  0  0  0  0  0  0  0  0  0  0
   22.0000    4.6330   29.0090 H   0  0  0  0  0  0  0  0  0  0  0  0
   25.9090    6.1300   28.2830 H   0  0  0  0  0  0  0  0  0  0  0  0
   24.6270    7.3870   28.6940 H   0  0  0  0  0  0  0  0  0  0  0  0
   25.6940    6.7010   30.0210 H   0  0  0  0  0  0  0  0  0  0  0  0
   26.5760    4.3710   29.7090 H   0  0  0  0  0  0  0  0  0  0  0  0
   28.1560    2.7860   28.8480 H   0  0  0  0  0  0  0  0  0  0  0  0
   29.0650    1.3320   29.3690 H   0  0  0  0  0  0  0  0  0  0  0  0
   27.3510    1.1840   28.8390 H   0  0  0  0  0  0  0  0  0  0  0  0
   22.5930    2.0730   31.6510 H   0  0  0  0  0  0  0  0  0  0  0  0
   23.3320    1.0380   33.6190 H   0  0  0  0  0  0  0  0  0  0  0  0
   23.2760   -0.0950   32.1610 H   0  0  0  0  0  0  0  0  0  0  0  0
   24.4240   -0.4350   33.5490 H   0  0  0  0  0  0  0  0  0  0  0  0
  1  2  1  0  0  0  0
  1 32  1  0  0  0  0
  1 33  1  0  0  0  0
  1 34  1  0  0  0  0
  2  3  1  0  0  0  0
  2  4  1  0  0  0  0
  2 35  1  0  0  0  0
  3 36  1  0  0  0  0
  3 37  1  0  0  0  0
  3 38  1  0  0  0  0
  4  5  1  0  0  0  0
  5 11  2  0  0  0  0
  5  6  1  0  0  0  0
  6  7  2  0  0  0  0
  7  8  1  0  0  0  0
  7 14  1  0  0  0  0
  8  9  2  0  0  0  0
  8 39  1  0  0  0  0
  9 10  1  0  0  0  0
  9 11  1  0  0  0  0
 10 40  1  0  0  0  0
 10 41  1  0  0  0  0
 11 12  1  0  0  0  0
 12 13  3  0  0  0  0
 14 15  1  0  0  0  0
 14 42  1  0  0  0  0
 15 16  2  0  0  0  0
 15 17  1  0  0  0  0
 17 18  1  0  0  0  0
 17 43  1  0  0  0  0
 17 44  1  0  0  0  0
 18 29  2  0  0  0  0
 18 19  1  0  0  0  0
 19 20  1  0  0  0  0
 19 22  2  0  0  0  0
 20 21  1  0  0  0  0
 21 45  1  0  0  0  0
 21 46  1  0  0  0  0
 21 47  1  0  0  0  0
 22 23  1  0  0  0  0
 22 48  1  0  0  0  0
 23 24  1  0  0  0  0
 23 28  2  0  0  0  0
 24 25  2  0  0  0  0
 24 26  2  0  0  0  0
 24 27  1  0  0  0  0
 27 49  1  0  0  0  0
 27 50  1  0  0  0  0
 27 51  1  0  0  0  0
 28 29  1  0  0  0  0
 28 30  1  0  0  0  0
 29 52  1  0  0  0  0
 30 31  1  0  0  0  0
 31 53  1  0  0  0  0
 31 54  1  0  0  0  0
 31 55  1  0  0  0  0
M  END
$$$$
