3fln
                    3D
 Schrodinger Suite 2022-3.
 46 49  0  0  1  0  0  0  0  0999 V2000
   27.1540    8.9410   30.4540 C   0  0  0  0  0  0  0  0  0  0  0  0
   28.5140    9.5260   30.8520 C   0  0  0  0  0  0  0  0  0  0  0  0
   28.5730    8.2240   32.8910 C   0  0  0  0  0  0  0  0  0  0  0  0
   27.2310    7.5560   32.5690 C   0  0  0  0  0  0  0  0  0  0  0  0
   15.9270   10.5130   31.6860 C   0  0  0  0  0  0  0  0  0  0  0  0
   29.2700    8.6220   31.6900 O   0  0  0  0  0  0  0  0  0  0  0  0
   21.3310   12.5410   31.3050 C   0  0  0  0  0  0  0  0  0  0  0  0
   17.2190   11.0150   31.8160 C   0  0  0  0  0  0  0  0  0  0  0  0
   23.9470    8.4820   31.0560 C   0  0  0  0  0  0  0  0  0  0  0  0
   26.3740    8.5170   31.7180 C   0  0  0  0  0  0  0  0  0  0  0  0
   21.5080    9.7200   30.7390 C   0  0  0  0  0  0  0  0  0  0  0  0
   20.2300   10.3720   30.6810 C   0  0  0  0  0  0  0  0  0  0  0  0
   15.2480   10.8210   30.5000 C   0  0  0  0  0  0  0  0  0  0  0  0
   15.8030   11.5950   29.4780 C   0  0  0  0  0  0  0  0  0  0  0  0
   17.0960   12.1030   29.6390 C   0  0  0  0  0  0  0  0  0  0  0  0
   22.6590   10.4450   31.1700 C   0  0  0  0  0  0  0  0  0  0  0  0
   21.7000    8.3540   30.4000 C   0  0  0  0  0  0  0  0  0  0  0  0
   20.1560   11.6880   30.9850 C   0  0  0  0  0  0  0  0  0  0  0  0
   17.7960   11.8260   30.8170 C   0  0  0  0  0  0  0  0  0  0  0  0
   23.7940   12.5520   31.8660 C   0  0  0  0  0  0  0  0  0  0  0  0
   17.9340   10.7190   32.8940 F   0  0  0  0  0  0  0  0  0  0  0  0
   14.0230   10.3290   30.3320 F   0  0  0  0  0  0  0  0  0  0  0  0
   19.0130   12.4830   31.0400 O   0  0  0  0  0  0  0  0  0  0  0  0
   22.8740    7.7240   30.5430 N   0  0  0  0  0  0  0  0  0  0  0  0
   21.3160   13.7430   31.4570 O   0  0  0  0  0  0  0  0  0  0  0  0
   22.5670   11.8190   31.4440 N   0  0  0  0  0  0  0  0  0  0  0  0
   23.8780    9.8350   31.3210 N   0  0  0  0  0  0  0  0  0  0  0  0
   25.1100    7.8080   31.3560 N   0  0  0  0  0  0  0  0  0  0  0  0
   15.2530   11.7930   28.5570 H   0  0  0  0  0  0  0  0  0  0  0  0
   17.5510   12.7050   28.8450 H   0  0  0  0  0  0  0  0  0  0  0  0
   15.4830    9.8820   32.4560 H   0  0  0  0  0  0  0  0  0  0  0  0
   19.3610    9.7760   30.3970 H   0  0  0  0  0  0  0  0  0  0  0  0
   20.8600    7.7690   29.9920 H   0  0  0  0  0  0  0  0  0  0  0  0
   27.2970    8.0520   29.7970 H   0  0  0  0  0  0  0  0  0  0  0  0
   26.5800    9.7120   29.8890 H   0  0  0  0  0  0  0  0  0  0  0  0
   28.3890   10.4940   31.3900 H   0  0  0  0  0  0  0  0  0  0  0  0
   29.1860    9.6350   29.9710 H   0  0  0  0  0  0  0  0  0  0  0  0
   29.2840    7.4990   33.3510 H   0  0  0  0  0  0  0  0  0  0  0  0
   28.4270    9.1200   33.5390 H   0  0  0  0  0  0  0  0  0  0  0  0
   26.7000    7.3060   33.5190 H   0  0  0  0  0  0  0  0  0  0  0  0
   27.4080    6.6040   32.0100 H   0  0  0  0  0  0  0  0  0  0  0  0
   26.1160    9.4270   32.3280 H   0  0  0  0  0  0  0  0  0  0  0  0
   24.5400   12.5670   31.0260 H   0  0  0  0  0  0  0  0  0  0  0  0
   24.2660   12.0350   32.7460 H   0  0  0  0  0  0  0  0  0  0  0  0
   23.5390   13.6050   32.1520 H   0  0  0  0  0  0  0  0  0  0  0  0
   25.2310    6.8360   31.0050 H   0  0  0  0  0  0  0  0  0  0  0  0
  1  2  1  0  0  0  0
  1 10  1  0  0  0  0
  1 34  1  0  0  0  0
  1 35  1  0  0  0  0
  2  6  1  0  0  0  0
  2 36  1  0  0  0  0
  2 37  1  0  0  0  0
  3  4  1  0  0  0  0
  3  6  1  0  0  0  0
  3 38  1  0  0  0  0
  3 39  1  0  0  0  0
  4 10  1  0  0  0  0
  4 40  1  0  0  0  0
  4 41  1  0  0  0  0
  5  8  1  0  0  0  0
  5 13  2  0  0  0  0
  5 31  1  0  0  0  0
  7 18  1  0  0  0  0
  7 25  2  0  0  0  0
  7 26  1  0  0  0  0
  8 19  2  0  0  0  0
  8 21  1  0  0  0  0
  9 24  1  0  0  0  0
  9 27  2  0  0  0  0
  9 28  1  0  0  0  0
 10 28  1  0  0  0  0
 10 42  1  0  0  0  0
 11 12  1  0  0  0  0
 11 16  2  0  0  0  0
 11 17  1  0  0  0  0
 12 18  2  0  0  0  0
 12 32  1  0  0  0  0
 13 14  1  0  0  0  0
 13 22  1  0  0  0  0
 14 15  2  0  0  0  0
 14 29  1  0  0  0  0
 15 19  1  0  0  0  0
 15 30  1  0  0  0  0
 16 26  1  0  0  0  0
 16 27  1  0  0  0  0
 17 24  2  0  0  0  0
 17 33  1  0  0  0  0
 18 23  1  0  0  0  0
 19 23  1  0  0  0  0
 20 26  1  0  0  0  0
 20 43  1  0  0  0  0
 20 44  1  0  0  0  0
 20 45  1  0  0  0  0
 28 46  1  0  0  0  0
M  END
$$$$
