18652-1
 OpenBabel02232411163D
Structure written by MMmdl.
 55 56  0  0  0  0  0  0  0  0999 V2000
   23.1950   10.4960   28.9570 C   0  0  0  0  0  0  0  0  0  0  0  0
   23.5470   10.9630   30.3590 C   0  0  0  0  0  0  0  0  0  0  0  0
   24.0540   12.3990   30.4060 C   0  0  0  0  0  0  0  0  0  0  0  0
   22.2990   11.0660   31.1860 O   0  0  0  0  0  0  0  0  0  0  0  0
   21.6660    9.9500   31.5920 C   0  0  0  0  0  0  0  0  0  0  0  0
   22.1460    8.7350   31.2260 N   0  0  0  0  0  0  0  0  0  0  0  0
   21.4030    7.6220   31.5760 C   0  0  0  0  0  0  0  0  0  0  0  0
   20.2340    7.7020   32.3280 C   0  0  0  0  0  0  0  0  0  0  0  0
   19.7520    8.9740   32.7370 C   0  0  0  0  0  0  0  0  0  0  0  0
   18.5830    9.0550   33.4540 N   0  0  0  0  0  0  0  0  0  0  0  0
   20.4830   10.1480   32.3690 C   0  0  0  0  0  0  0  0  0  0  0  0
   20.0860   11.4620   32.6980 C   0  0  0  0  0  0  0  0  0  0  0  0
   19.8050   12.5620   32.9360 N   0  0  0  0  0  0  0  0  0  0  0  0
   21.9490    6.4230   31.0520 N   0  0  0  0  0  0  0  0  0  0  0  0
   21.2560    5.1970   30.9520 C   0  0  0  0  0  0  0  0  0  0  0  0
   20.1780    5.0100   31.4760 O   0  0  0  0  0  0  0  0  0  0  0  0
   21.9250    4.1670   30.0580 C   0  0  0  0  0  0  0  0  0  0  0  0
   23.2920    3.7170   30.4820 C   0  0  0  0  0  0  0  0  0  0  0  0
   24.4480    4.3920   29.9840 C   0  0  0  0  0  0  0  0  0  0  0  0
   24.1330    5.5270   29.2400 O   0  0  0  0  0  0  0  0  0  0  0  0
   25.1870    6.5140   29.0770 C   0  0  0  0  0  0  0  0  0  0  0  0
   25.7240    3.8850   30.1870 C   0  0  0  0  0  0  0  0  0  0  0  0
   25.9130    2.7190   30.9570 C   0  0  0  0  0  0  0  0  0  0  0  0
   27.5410    2.0850   31.0660 S   0  0  0  0  0  0  0  0  0  0  0  0
   27.5190    0.8910   31.9470 O   0  0  0  0  0  0  0  0  0  0  0  0
   28.4580    3.1180   31.6070 O   0  0  0  0  0  0  0  0  0  0  0  0
   27.9590    1.6500   29.4390 C   0  0  0  0  0  0  0  0  0  0  0  0
   24.7900    2.1200   31.5450 C   0  0  0  0  0  0  0  0  0  0  0  0
   23.4780    2.6000   31.2750 C   0  0  0  0  0  0  0  0  0  0  0  0
   25.0570    1.0730   32.3840 O   0  0  0  0  0  0  0  0  0  0  0  0
   23.9300    0.3250   32.9280 C   0  0  0  0  0  0  0  0  0  0  0  0
   22.8180    9.4470   28.9620 H   0  0  0  0  0  0  0  0  0  0  0  0
   22.4280   11.1530   28.4910 H   0  0  0  0  0  0  0  0  0  0  0  0
   24.1110   10.5310   28.3190 H   0  0  0  0  0  0  0  0  0  0  0  0
   24.2320   10.2540   30.8790 H   0  0  0  0  0  0  0  0  0  0  0  0
   24.2600   12.7200   31.4490 H   0  0  0  0  0  0  0  0  0  0  0  0
   25.0010   12.4630   29.8160 H   0  0  0  0  0  0  0  0  0  0  0  0
   23.3170   13.1010   29.9510 H   0  0  0  0  0  0  0  0  0  0  0  0
   19.6680    6.8060   32.5920 H   0  0  0  0  0  0  0  0  0  0  0  0
   18.0670    8.1990   33.7310 H   0  0  0  0  0  0  0  0  0  0  0  0
   18.1880    9.9530   33.7290 H   0  0  0  0  0  0  0  0  0  0  0  0
   22.8630    6.5140   30.5500 H   0  0  0  0  0  0  0  0  0  0  0  0
   21.2560    3.2690   29.9950 H   0  0  0  0  0  0  0  0  0  0  0  0
   22.0020    4.6240   29.0290 H   0  0  0  0  0  0  0  0  0  0  0  0
   25.9050    6.1530   28.3090 H   0  0  0  0  0  0  0  0  0  0  0  0
   24.6140    7.4000   28.7200 H   0  0  0  0  0  0  0  0  0  0  0  0
   25.6860    6.7200   30.0480 H   0  0  0  0  0  0  0  0  0  0  0  0
   26.5830    4.3880   29.7300 H   0  0  0  0  0  0  0  0  0  0  0  0
   27.9900    2.5360   28.7510 H   0  0  0  0  0  0  0  0  0  0  0  0
   28.9660    1.1630   29.3670 H   0  0  0  0  0  0  0  0  0  0  0  0
   27.2230    0.9350   28.9890 H   0  0  0  0  0  0  0  0  0  0  0  0
   22.6090    2.0720   31.6710 H   0  0  0  0  0  0  0  0  0  0  0  0
   23.3190    0.9720   33.5920 H   0  0  0  0  0  0  0  0  0  0  0  0
   23.3350   -0.1230   32.1030 H   0  0  0  0  0  0  0  0  0  0  0  0
   24.4510   -0.4700   33.5160 H   0  0  0  0  0  0  0  0  0  0  0  0
  1  2  1  0  0  0  0
  1 32  1  0  0  0  0
  1 33  1  0  0  0  0
  1 34  1  0  0  0  0
  2  3  1  0  0  0  0
  2  4  1  0  0  0  0
  2 35  1  0  0  0  0
  3 36  1  0  0  0  0
  3 37  1  0  0  0  0
  3 38  1  0  0  0  0
  4  5  1  0  0  0  0
  5 11  2  0  0  0  0
  5  6  1  0  0  0  0
  6  7  2  0  0  0  0
  7  8  1  0  0  0  0
  7 14  1  0  0  0  0
  8  9  2  0  0  0  0
  8 39  1  0  0  0  0
  9 10  1  0  0  0  0
  9 11  1  0  0  0  0
 10 40  1  0  0  0  0
 10 41  1  0  0  0  0
 11 12  1  0  0  0  0
 12 13  3  0  0  0  0
 14 15  1  0  0  0  0
 14 42  1  0  0  0  0
 15 16  2  0  0  0  0
 15 17  1  0  0  0  0
 17 18  1  0  0  0  0
 17 43  1  0  0  0  0
 17 44  1  0  0  0  0
 18 29  2  0  0  0  0
 18 19  1  0  0  0  0
 19 20  1  0  0  0  0
 19 22  2  0  0  0  0
 20 21  1  0  0  0  0
 21 45  1  0  0  0  0
 21 46  1  0  0  0  0
 21 47  1  0  0  0  0
 22 23  1  0  0  0  0
 22 48  1  0  0  0  0
 23 24  1  0  0  0  0
 23 28  2  0  0  0  0
 24 25  2  0  0  0  0
 24 26  2  0  0  0  0
 24 27  1  0  0  0  0
 27 49  1  0  0  0  0
 27 50  1  0  0  0  0
 27 51  1  0  0  0  0
 28 29  1  0  0  0  0
 28 30  1  0  0  0  0
 29 52  1  0  0  0  0
 30 31  1  0  0  0  0
 31 53  1  0  0  0  0
 31 54  1  0  0  0  0
 31 55  1  0  0  0  0
M  END
$$$$
