18636-1
 OpenBabel02232411163D
Structure written by MMmdl.
 38 39  0  0  0  0  0  0  0  0999 V2000
   23.8090   12.6690   30.3610 C   0  0  0  0  0  0  0  0  0  0  0  0
   23.3790   11.2170   30.4320 C   0  0  0  0  0  0  0  0  0  0  0  0
   22.1430   11.2760   31.2560 O   0  0  0  0  0  0  0  0  0  0  0  0
   21.5300   10.1220   31.5850 C   0  0  0  0  0  0  0  0  0  0  0  0
   22.0260    8.9460   31.1300 N   0  0  0  0  0  0  0  0  0  0  0  0
   21.3210    7.7930   31.4400 C   0  0  0  0  0  0  0  0  0  0  0  0
   20.1700    7.7980   32.2200 C   0  0  0  0  0  0  0  0  0  0  0  0
   19.6590    9.0370   32.6990 C   0  0  0  0  0  0  0  0  0  0  0  0
   18.5100    9.0600   33.4470 N   0  0  0  0  0  0  0  0  0  0  0  0
   20.3470   10.2490   32.3730 C   0  0  0  0  0  0  0  0  0  0  0  0
   19.9090   11.5380   32.7440 C   0  0  0  0  0  0  0  0  0  0  0  0
   19.6010   12.6250   33.0060 N   0  0  0  0  0  0  0  0  0  0  0  0
   21.9130    6.6500   30.8460 N   0  0  0  0  0  0  0  0  0  0  0  0
   21.3750    5.3440   30.7900 C   0  0  0  0  0  0  0  0  0  0  0  0
   20.3700    5.0150   31.3820 O   0  0  0  0  0  0  0  0  0  0  0  0
   22.1610    4.4080   29.8740 C   0  0  0  0  0  0  0  0  0  0  0  0
   23.3830    3.8550   30.5470 C   0  0  0  0  0  0  0  0  0  0  0  0
   24.6730    4.3720   30.3420 C   0  0  0  0  0  0  0  0  0  0  0  0
   25.0170    5.7200   29.0280 Br  0  0  0  0  0  0  0  0  0  0  0  0
   25.7790    3.8840   31.0460 C   0  0  0  0  0  0  0  0  0  0  0  0
   25.6190    2.8290   31.9480 C   0  0  0  0  0  0  0  0  0  0  0  0
   24.3500    2.2690   32.1070 C   0  0  0  0  0  0  0  0  0  0  0  0
   24.1290    0.7760   33.2760 Br  0  0  0  0  0  0  0  0  0  0  0  0
   23.2410    2.7650   31.4230 C   0  0  0  0  0  0  0  0  0  0  0  0
   24.7060   12.7440   29.6950 H   0  0  0  0  0  0  0  0  0  0  0  0
   23.0020   13.3050   29.9260 H   0  0  0  0  0  0  0  0  0  0  0  0
   24.0770   13.0660   31.3650 H   0  0  0  0  0  0  0  0  0  0  0  0
   23.0970   10.8060   29.4370 H   0  0  0  0  0  0  0  0  0  0  0  0
   24.1200   10.5750   30.9580 H   0  0  0  0  0  0  0  0  0  0  0  0
   19.6390    6.8740   32.4540 H   0  0  0  0  0  0  0  0  0  0  0  0
   18.0170    8.1840   33.7080 H   0  0  0  0  0  0  0  0  0  0  0  0
   18.1010    9.9400   33.7620 H   0  0  0  0  0  0  0  0  0  0  0  0
   22.7940    6.8440   30.3200 H   0  0  0  0  0  0  0  0  0  0  0  0
   21.4800    3.5650   29.5760 H   0  0  0  0  0  0  0  0  0  0  0  0
   22.4320    4.9580   28.9310 H   0  0  0  0  0  0  0  0  0  0  0  0
   26.7790    4.3140   30.8900 H   0  0  0  0  0  0  0  0  0  0  0  0
   26.4880    2.4480   32.5020 H   0  0  0  0  0  0  0  0  0  0  0  0
   22.2600    2.2960   31.5610 H   0  0  0  0  0  0  0  0  0  0  0  0
  1  2  1  0  0  0  0
  1 25  1  0  0  0  0
  1 26  1  0  0  0  0
  1 27  1  0  0  0  0
  2  3  1  0  0  0  0
  2 28  1  0  0  0  0
  2 29  1  0  0  0  0
  3  4  1  0  0  0  0
  4 10  2  0  0  0  0
  4  5  1  0  0  0  0
  5  6  2  0  0  0  0
  6  7  1  0  0  0  0
  6 13  1  0  0  0  0
  7  8  2  0  0  0  0
  7 30  1  0  0  0  0
  8  9  1  0  0  0  0
  8 10  1  0  0  0  0
  9 31  1  0  0  0  0
  9 32  1  0  0  0  0
 10 11  1  0  0  0  0
 11 12  3  0  0  0  0
 13 14  1  0  0  0  0
 13 33  1  0  0  0  0
 14 15  2  0  0  0  0
 14 16  1  0  0  0  0
 16 17  1  0  0  0  0
 16 34  1  0  0  0  0
 16 35  1  0  0  0  0
 17 24  2  0  0  0  0
 17 18  1  0  0  0  0
 18 19  1  0  0  0  0
 18 20  2  0  0  0  0
 20 21  1  0  0  0  0
 20 36  1  0  0  0  0
 21 22  2  0  0  0  0
 21 37  1  0  0  0  0
 22 23  1  0  0  0  0
 22 24  1  0  0  0  0
 24 38  1  0  0  0  0
M  END
$$$$
