p38a_2bb
 OpenBabel02232411163D
Structure written by MMmdl.
 44 46  0  0  0  0  0  0  0  0999 V2000
   36.3670   36.0260   15.8280 C   0  0  0  0  0  0  0  0  0  0  0  0
   34.4090   34.9740   21.2680 C   0  0  0  0  0  0  0  0  0  0  0  0
   35.7150   35.5460   16.9600 C   0  0  0  0  0  0  0  0  0  0  0  0
   33.8530   39.0200   23.8570 C   0  0  0  0  0  0  0  0  0  0  0  0
   32.5550   39.0350   26.0180 C   0  0  0  0  0  0  0  0  0  0  0  0
   34.7400   37.8240   21.5380 C   0  0  0  0  0  0  0  0  0  0  0  0
   35.2640   37.1610   20.3730 C   0  0  0  0  0  0  0  0  0  0  0  0
   37.6560   36.5390   16.0210 C   0  0  0  0  0  0  0  0  0  0  0  0
   38.3020   36.5540   17.2610 C   0  0  0  0  0  0  0  0  0  0  0  0
   37.6120   36.0990   18.3900 C   0  0  0  0  0  0  0  0  0  0  0  0
   34.1100   37.0690   22.5710 C   0  0  0  0  0  0  0  0  0  0  0  0
   34.8340   39.2260   21.7380 C   0  0  0  0  0  0  0  0  0  0  0  0
   35.1310   35.8180   20.2740 C   0  0  0  0  0  0  0  0  0  0  0  0
   36.3180   35.5950   18.2330 C   0  0  0  0  0  0  0  0  0  0  0  0
   33.2700   34.9300   23.5270 C   0  0  0  0  0  0  0  0  0  0  0  0
   34.5050   35.0110   16.8650 F   0  0  0  0  0  0  0  0  0  0  0  0
   35.5980   34.9800   19.2670 O   0  0  0  0  0  0  0  0  0  0  0  0
   34.4130   39.8350   22.8590 N   0  0  0  0  0  0  0  0  0  0  0  0
   34.1970   33.7870   21.1540 O   0  0  0  0  0  0  0  0  0  0  0  0
   33.9440   35.6830   22.4320 N   0  0  0  0  0  0  0  0  0  0  0  0
   33.6540   37.6650   23.7220 N   0  0  0  0  0  0  0  0  0  0  0  0
   33.5450   39.6280   25.0670 N   0  0  0  0  0  0  0  0  0  0  0  0
   35.8920   36.0260   14.8440 H   0  0  0  0  0  0  0  0  0  0  0  0
   31.7580   38.4840   25.4390 H   0  0  0  0  0  0  0  0  0  0  0  0
   35.7620   37.7730   19.6160 H   0  0  0  0  0  0  0  0  0  0  0  0
   39.3200   36.9420   17.3570 H   0  0  0  0  0  0  0  0  0  0  0  0
   38.0810   36.1620   19.3740 H   0  0  0  0  0  0  0  0  0  0  0  0
   35.2610   39.8670   20.9490 H   0  0  0  0  0  0  0  0  0  0  0  0
   33.7780   35.1430   24.5080 H   0  0  0  0  0  0  0  0  0  0  0  0
   32.1990   35.2590   23.6140 H   0  0  0  0  0  0  0  0  0  0  0  0
   33.3090   33.8290   23.3250 H   0  0  0  0  0  0  0  0  0  0  0  0
   33.6300   40.6620   25.1200 H   0  0  0  0  0  0  0  0  0  0  0  0
   38.2800   37.0700   14.9720 F   0  0  0  0  0  0  0  0  0  0  0  0
   33.2030   38.0470   26.9950 C   0  0  0  0  0  0  0  0  0  0  0  0
   32.0690   39.8900   26.5620 H   0  0  0  0  0  0  0  0  0  0  0  0
   32.4140   37.2920   27.2770 H   0  0  0  0  0  0  0  0  0  0  0  0
   33.9770   37.4520   26.4300 H   0  0  0  0  0  0  0  0  0  0  0  0
   35.1910   39.7710   27.9090 C   0  0  0  0  0  0  0  0  0  0  0  0
   33.9090   38.7300   28.4530 S   0  0  0  0  0  0  0  0  0  0  0  0
   32.9010   39.4930   29.2270 O   0  0  0  0  0  0  0  0  0  0  0  0
   34.4640   37.6320   29.2870 O   0  0  0  0  0  0  0  0  0  0  0  0
   35.8470   39.2740   27.1510 H   0  0  0  0  0  0  0  0  0  0  0  0
   34.7970   40.7050   27.4210 H   0  0  0  0  0  0  0  0  0  0  0  0
   35.8510   40.1110   28.7490 H   0  0  0  0  0  0  0  0  0  0  0  0
  1  3  2  0  0  0  0
  1  8  1  0  0  0  0
  1 23  1  0  0  0  0
  2 13  1  0  0  0  0
  2 19  2  0  0  0  0
  2 20  1  0  0  0  0
  3 14  1  0  0  0  0
  3 16  1  0  0  0  0
  4 18  2  0  0  0  0
  4 21  1  0  0  0  0
  4 22  1  0  0  0  0
  5 22  1  0  0  0  0
  5 24  1  0  0  0  0
  5 34  1  0  0  0  0
  5 35  1  0  0  0  0
  6  7  1  0  0  0  0
  6 11  1  0  0  0  0
  6 12  2  0  0  0  0
  7 13  2  0  0  0  0
  7 25  1  0  0  0  0
  8  9  2  0  0  0  0
  8 33  1  0  0  0  0
  9 10  1  0  0  0  0
  9 26  1  0  0  0  0
 10 14  2  0  0  0  0
 10 27  1  0  0  0  0
 11 20  1  0  0  0  0
 11 21  2  0  0  0  0
 12 18  1  0  0  0  0
 12 28  1  0  0  0  0
 13 17  1  0  0  0  0
 14 17  1  0  0  0  0
 15 20  1  0  0  0  0
 15 29  1  0  0  0  0
 15 30  1  0  0  0  0
 15 31  1  0  0  0  0
 22 32  1  0  0  0  0
 34 36  1  0  0  0  0
 34 37  1  0  0  0  0
 34 39  1  0  0  0  0
 38 39  1  0  0  0  0
 38 42  1  0  0  0  0
 38 43  1  0  0  0  0
 38 44  1  0  0  0  0
 39 40  2  0  0  0  0
 39 41  2  0  0  0  0
M  END
$$$$
