64
                    3D
 Schrodinger Suite 2022-3.
 43 46  0  0  1  0  0  0  0  0999 V2000
    3.2110  -47.4110    7.2700 O   0  0  0  0  0  0  0  0  0  0  0  0
    3.1090  -48.5590    6.8160 C   0  0  0  0  0  0  0  0  0  0  0  0
    4.0250  -49.3790    6.6190 O   0  5  0  0  0  0  0  0  0  0  0  0
    1.7030  -49.0710    6.5100 C   0  0  0  0  0  0  0  0  0  0  0  0
    1.4200  -50.7490    6.9370 S   0  0  0  0  0  0  0  0  0  0  0  0
   -0.2620  -50.6580    6.5080 C   0  0  0  0  0  0  0  0  0  0  0  0
   -1.2130  -51.6660    6.6230 C   0  0  0  0  0  0  0  0  0  0  0  0
   -2.4990  -51.3370    6.2140 C   0  0  0  0  0  0  0  0  0  0  0  0
   -2.8600  -50.0810    5.7070 C   0  0  0  0  0  0  0  0  0  0  0  0
   -1.8910  -49.0880    5.6000 C   0  0  0  0  0  0  0  0  0  0  0  0
   -0.5740  -49.3660    6.0060 C   0  0  0  0  0  0  0  0  0  0  0  0
    0.5870  -48.4710    6.0250 C   0  0  0  0  0  0  0  0  0  0  0  0
    0.4560  -47.0490    5.5820 C   0  0  0  0  0  0  0  0  0  0  0  0
    0.3220  -46.0940    6.7780 C   0  0  0  0  0  0  0  0  0  0  0  0
   -0.8730  -46.3590    7.6840 C   0  0  0  0  0  0  0  0  0  0  0  0
   -2.0340  -45.7660    6.9850 O   0  0  0  0  0  0  0  0  0  0  0  0
   -3.2370  -45.8020    7.6270 C   0  0  0  0  0  0  0  0  0  0  0  0
   -5.7890  -45.6030    8.7910 C   0  0  0  0  0  0  0  0  0  0  0  0
   -4.8130  -46.3790    9.3660 C   0  0  0  0  0  0  0  0  0  0  0  0
   -3.5180  -46.4850    8.7950 C   0  0  0  0  0  0  0  0  0  0  0  0
   -0.9790  -52.6600    7.0120 H   0  0  0  0  0  0  0  0  0  0  0  0
   -3.7230  -52.5550    6.3020 Cl  0  0  0  0  0  0  0  0  0  0  0  0
   -3.8920  -49.8920    5.4020 H   0  0  0  0  0  0  0  0  0  0  0  0
   -2.1780  -48.1100    5.2110 H   0  0  0  0  0  0  0  0  0  0  0  0
   -0.4430  -46.9420    4.9260 H   0  0  0  0  0  0  0  0  0  0  0  0
    1.3570  -46.7440    4.9920 H   0  0  0  0  0  0  0  0  0  0  0  0
    0.2520  -45.0470    6.4040 H   0  0  0  0  0  0  0  0  0  0  0  0
    1.2500  -46.2100    7.4020 H   0  0  0  0  0  0  0  0  0  0  0  0
   -0.7820  -45.8060    8.6440 H   0  0  0  0  0  0  0  0  0  0  0  0
   -1.0930  -47.4390    7.8080 H   0  0  0  0  0  0  0  0  0  0  0  0
   -2.7980  -47.1200    9.3010 H   0  0  0  0  0  0  0  0  0  0  0  0
   -5.5370  -44.9310    7.5550 C   0  0  0  0  0  0  0  0  0  0  0  0
   -4.2560  -45.0290    6.9500 C   0  0  0  0  0  0  0  0  0  0  0  0
   -4.0270  -44.4180    5.6840 C   0  0  0  0  0  0  0  0  0  0  0  0
   -5.0270  -43.7150    5.0570 C   0  0  0  0  0  0  0  0  0  0  0  0
   -6.3080  -43.6060    5.6630 C   0  0  0  0  0  0  0  0  0  0  0  0
   -6.5590  -44.1950    6.8790 C   0  0  0  0  0  0  0  0  0  0  0  0
   -3.0530  -44.5430    5.2080 H   0  0  0  0  0  0  0  0  0  0  0  0
   -4.8540  -43.2430    4.0920 H   0  0  0  0  0  0  0  0  0  0  0  0
   -7.0880  -43.0530    5.1450 H   0  0  0  0  0  0  0  0  0  0  0  0
   -7.5450  -44.1230    7.3380 H   0  0  0  0  0  0  0  0  0  0  0  0
   -5.0260  -46.9360   10.2810 H   0  0  0  0  0  0  0  0  0  0  0  0
   -6.7740  -45.5120    9.2470 H   0  0  0  0  0  0  0  0  0  0  0  0
  1  2  2  0  0  0  0
  2  3  1  0  0  0  0
  2  4  1  0  0  0  0
  4  5  1  0  0  0  0
  4 12  2  0  0  0  0
  5  6  1  0  0  0  0
  6  7  1  0  0  0  0
  6 11  2  0  0  0  0
  7  8  2  0  0  0  0
  7 21  1  0  0  0  0
  8  9  1  0  0  0  0
  8 22  1  0  0  0  0
  9 10  2  0  0  0  0
  9 23  1  0  0  0  0
 10 11  1  0  0  0  0
 10 24  1  0  0  0  0
 11 12  1  0  0  0  0
 12 13  1  0  0  0  0
 13 25  1  0  0  0  0
 13 26  1  0  0  0  0
 13 14  1  0  0  0  0
 14 15  1  0  0  0  0
 14 27  1  0  0  0  0
 14 28  1  0  0  0  0
 15 16  1  0  0  0  0
 15 29  1  0  0  0  0
 15 30  1  0  0  0  0
 16 17  1  0  0  0  0
 17 20  2  0  0  0  0
 17 33  1  0  0  0  0
 18 19  2  0  0  0  0
 18 32  1  0  0  0  0
 18 43  1  0  0  0  0
 19 20  1  0  0  0  0
 19 42  1  0  0  0  0
 20 31  1  0  0  0  0
 32 33  2  0  0  0  0
 32 37  1  0  0  0  0
 33 34  1  0  0  0  0
 34 35  2  0  0  0  0
 34 38  1  0  0  0  0
 35 36  1  0  0  0  0
 35 39  1  0  0  0  0
 36 37  2  0  0  0  0
 36 40  1  0  0  0  0
 37 41  1  0  0  0  0
M  CHG  1   3  -1
M  END
$$$$
