p38a_3flw
 OpenBabel02232411163D
Structure written by MMmdl.
 49 51  0  0  0  0  0  0  0  0999 V2000
   38.2280   36.4870   17.2270 C   0  0  0  0  0  0  0  0  0  0  0  0
   37.5930   36.6600   15.9890 C   0  0  0  0  0  0  0  0  0  0  0  0
   32.3740   38.5790   26.2620 C   0  0  0  0  0  0  0  0  0  0  0  0
   31.2230   39.1490   25.4220 C   0  0  0  0  0  0  0  0  0  0  0  0
   34.8280   38.7400   26.9900 C   0  0  0  0  0  0  0  0  0  0  0  0
   34.0910   35.1780   23.8370 C   0  0  0  0  0  0  0  0  0  0  0  0
   37.9470   35.9000   19.4890 F   0  0  0  0  0  0  0  0  0  0  0  0
   37.4250   36.0540   18.2790 C   0  0  0  0  0  0  0  0  0  0  0  0
   38.3130   37.1390   14.9770 F   0  0  0  0  0  0  0  0  0  0  0  0
   36.2390   36.3940   15.7750 C   0  0  0  0  0  0  0  0  0  0  0  0
   35.4550   35.9520   16.8460 C   0  0  0  0  0  0  0  0  0  0  0  0
   36.0530   35.7750   18.0970 C   0  0  0  0  0  0  0  0  0  0  0  0
   35.3000   35.1880   19.1250 O   0  0  0  0  0  0  0  0  0  0  0  0
   35.0020   36.0250   20.2000 C   0  0  0  0  0  0  0  0  0  0  0  0
   35.0320   37.3770   20.2110 C   0  0  0  0  0  0  0  0  0  0  0  0
   34.7320   38.0640   21.4370 C   0  0  0  0  0  0  0  0  0  0  0  0
   34.6820   39.4790   21.5360 C   0  0  0  0  0  0  0  0  0  0  0  0
   34.4460   40.1190   22.6900 N   0  0  0  0  0  0  0  0  0  0  0  0
   34.5890   35.1910   21.3600 C   0  0  0  0  0  0  0  0  0  0  0  0
   34.4060   33.9940   21.3410 O   0  0  0  0  0  0  0  0  0  0  0  0
   34.3950   35.9260   22.5850 N   0  0  0  0  0  0  0  0  0  0  0  0
   34.4730   37.3240   22.6290 C   0  0  0  0  0  0  0  0  0  0  0  0
   34.2600   37.9490   23.8370 N   0  0  0  0  0  0  0  0  0  0  0  0
   34.2650   39.3290   23.8440 C   0  0  0  0  0  0  0  0  0  0  0  0
   34.0540   40.0250   25.0090 N   0  0  0  0  0  0  0  0  0  0  0  0
   33.6340   39.4670   26.3310 C   0  0  0  0  0  0  0  0  0  0  0  0
   34.6760   38.5910   28.5100 C   0  0  0  0  0  0  0  0  0  0  0  0
   34.3010   37.2540   28.8900 O   0  0  0  0  0  0  0  0  0  0  0  0
   31.1150   38.4730   24.1570 O   0  0  0  0  0  0  0  0  0  0  0  0
   39.2880   36.7190   17.3670 H   0  0  0  0  0  0  0  0  0  0  0  0
   32.0120   38.4410   27.3120 H   0  0  0  0  0  0  0  0  0  0  0  0
   32.6490   37.5720   25.8580 H   0  0  0  0  0  0  0  0  0  0  0  0
   30.2390   38.9380   25.8960 H   0  0  0  0  0  0  0  0  0  0  0  0
   31.3490   40.2380   25.2270 H   0  0  0  0  0  0  0  0  0  0  0  0
   34.9660   37.7330   26.5270 H   0  0  0  0  0  0  0  0  0  0  0  0
   35.7510   39.3380   26.7850 H   0  0  0  0  0  0  0  0  0  0  0  0
   34.7730   35.5180   24.6640 H   0  0  0  0  0  0  0  0  0  0  0  0
   33.0310   35.3770   24.1510 H   0  0  0  0  0  0  0  0  0  0  0  0
   34.2310   34.0780   23.6750 H   0  0  0  0  0  0  0  0  0  0  0  0
   35.7810   36.5430   14.7940 H   0  0  0  0  0  0  0  0  0  0  0  0
   34.3870   35.7630   16.6980 H   0  0  0  0  0  0  0  0  0  0  0  0
   35.2880   37.9760   19.3350 H   0  0  0  0  0  0  0  0  0  0  0  0
   34.8200   40.1000   20.6360 H   0  0  0  0  0  0  0  0  0  0  0  0
   34.0210   41.0620   24.9770 H   0  0  0  0  0  0  0  0  0  0  0  0
   33.3860   40.3840   26.9480 H   0  0  0  0  0  0  0  0  0  0  0  0
   35.6610   38.7200   29.0200 H   0  0  0  0  0  0  0  0  0  0  0  0
   33.9230   39.3010   28.9250 H   0  0  0  0  0  0  0  0  0  0  0  0
   33.4710   37.0030   28.4140 H   0  0  0  0  0  0  0  0  0  0  0  0
   31.9970   38.4450   23.7550 H   0  0  0  0  0  0  0  0  0  0  0  0
  1  2  2  0  0  0  0
  1  8  1  0  0  0  0
  1 30  1  0  0  0  0
  2  9  1  0  0  0  0
  2 10  1  0  0  0  0
  3  4  1  0  0  0  0
  3 26  1  0  0  0  0
  3 31  1  0  0  0  0
  3 32  1  0  0  0  0
  4 29  1  0  0  0  0
  4 33  1  0  0  0  0
  4 34  1  0  0  0  0
  5 26  1  0  0  0  0
  5 27  1  0  0  0  0
  5 35  1  0  0  0  0
  5 36  1  0  0  0  0
  6 21  1  0  0  0  0
  6 37  1  0  0  0  0
  6 38  1  0  0  0  0
  6 39  1  0  0  0  0
  7  8  1  0  0  0  0
  8 12  2  0  0  0  0
 10 11  2  0  0  0  0
 10 40  1  0  0  0  0
 11 12  1  0  0  0  0
 11 41  1  0  0  0  0
 12 13  1  0  0  0  0
 13 14  1  0  0  0  0
 14 15  2  0  0  0  0
 14 19  1  0  0  0  0
 15 16  1  0  0  0  0
 15 42  1  0  0  0  0
 16 17  2  0  0  0  0
 16 22  1  0  0  0  0
 17 18  1  0  0  0  0
 17 43  1  0  0  0  0
 18 24  2  0  0  0  0
 19 20  2  0  0  0  0
 19 21  1  0  0  0  0
 21 22  1  0  0  0  0
 22 23  2  0  0  0  0
 23 24  1  0  0  0  0
 24 25  1  0  0  0  0
 25 26  1  0  0  0  0
 25 44  1  0  0  0  0
 26 45  1  0  0  0  0
 27 28  1  0  0  0  0
 27 46  1  0  0  0  0
 27 47  1  0  0  0  0
 28 48  1  0  0  0  0
 29 49  1  0  0  0  0
M  END
$$$$
