CAT-17e
 OpenBabel02232411143D
Structure written by MMmdl.
 46 49  0  0  1  0  0  0  0  0999 V2000
   12.2680    4.1570   -5.3990 C   0  0  0  0  0  0  0  0  0  0  0  0
   12.7640    4.8140   -4.2000 O   0  0  0  0  0  0  0  0  0  0  0  0
   13.5850    4.1060   -3.3700 C   0  0  0  0  0  0  0  0  0  0  0  0
   13.9620    4.8380   -2.1980 C   0  0  0  0  0  0  0  0  0  0  0  0
   14.7510    4.3020   -1.2560 N   0  0  0  0  0  0  0  0  0  0  0  0
   15.1830    3.0160   -1.4150 C   0  0  0  0  0  0  0  0  0  0  0  0
   14.8550    2.2440   -2.5400 C   0  0  0  0  0  0  0  0  0  0  0  0
   15.3340    0.8490   -2.6570 C   0  0  0  0  0  0  0  0  0  0  0  0
   16.2150    0.4730   -3.6860 C   0  0  0  0  0  0  0  0  0  0  0  0
   16.6890   -0.8390   -3.7540 C   0  0  0  0  0  0  0  0  0  0  0  0
   16.2630   -1.7970   -2.8300 C   0  0  0  0  0  0  0  0  0  0  0  0
   15.3390   -1.4410   -1.8400 C   0  0  0  0  0  0  0  0  0  0  0  0
   14.7780   -2.4810   -0.8950 C   0  0  1  0  0  0  0  0  0  0  0  0
   15.0230   -3.9280   -1.3000 C   0  0  0  0  0  0  0  0  0  0  0  0
   16.2720   -4.6670   -0.8530 C   0  0  0  0  0  0  0  0  0  0  0  0
   14.9280   -5.0560   -0.2790 C   0  0  0  0  0  0  0  0  0  0  0  0
   15.2300   -2.1780    0.5140 N   0  3  0  0  0  0  0  0  0  0  0  0
   14.1430   -2.3010    1.3940 C   0  0  0  0  0  0  0  0  0  0  0  0
   14.2990   -2.4510    2.7410 N   0  0  0  0  0  0  0  0  0  0  0  0
   12.9500   -2.2880    0.6810 N   0  0  0  0  0  0  0  0  0  0  0  0
   11.6090   -2.4270    1.2860 C   0  0  0  0  0  0  0  0  0  0  0  0
   13.2230   -2.3440   -0.7740 C   0  0  0  0  0  0  0  0  0  0  0  0
   12.3510   -2.2880   -1.5790 O   0  0  0  0  0  0  0  0  0  0  0  0
   14.8980   -0.1120   -1.7340 C   0  0  0  0  0  0  0  0  0  0  0  0
   14.0480    2.8030   -3.5490 C   0  0  0  0  0  0  0  0  0  0  0  0
   11.6420    4.9660   -5.8490 H   0  0  0  0  0  0  0  0  0  0  0  0
   13.1140    3.8840   -6.0630 H   0  0  0  0  0  0  0  0  0  0  0  0
   11.6510    3.2740   -5.1250 H   0  0  0  0  0  0  0  0  0  0  0  0
   13.5890    5.8630   -2.0440 H   0  0  0  0  0  0  0  0  0  0  0  0
   15.8000    2.5970   -0.6060 H   0  0  0  0  0  0  0  0  0  0  0  0
   16.5330    1.2030   -4.4370 H   0  0  0  0  0  0  0  0  0  0  0  0
   17.3970   -1.1270   -4.5380 H   0  0  0  0  0  0  0  0  0  0  0  0
   16.6510   -2.8160   -2.8820 H   0  0  0  0  0  0  0  0  0  0  0  0
   14.6500   -4.1350   -2.3200 H   0  0  0  0  0  0  0  0  0  0  0  0
   16.7810   -5.3100   -1.5710 H   0  0  0  0  0  0  0  0  0  0  0  0
   16.9960   -4.1560   -0.2140 H   0  0  0  0  0  0  0  0  0  0  0  0
   14.7180   -4.8220    0.7710 H   0  0  0  0  0  0  0  0  0  0  0  0
   14.4520   -5.9950   -0.5910 H   0  0  0  0  0  0  0  0  0  0  0  0
   16.1650   -2.5370    0.8580 H   0  0  0  0  0  0  0  0  0  0  0  0
   13.5840   -2.0840    3.4190 H   0  0  0  0  0  0  0  0  0  0  0  0
   11.0740   -3.2920    0.8060 H   0  0  0  0  0  0  0  0  0  0  0  0
   11.6810   -2.6270    2.3870 H   0  0  0  0  0  0  0  0  0  0  0  0
   11.0290   -1.4790    1.1190 H   0  0  0  0  0  0  0  0  0  0  0  0
   14.2180    0.1710   -0.9310 H   0  0  0  0  0  0  0  0  0  0  0  0
   13.7990    2.2080   -4.4310 H   0  0  0  0  0  0  0  0  0  0  0  0
   15.2810   -2.3860    3.1370 H   0  0  0  0  0  0  0  0  0  0  0  0
  1  2  1  0  0  0  0
  1 26  1  0  0  0  0
  1 27  1  0  0  0  0
  1 28  1  0  0  0  0
  2  3  1  0  0  0  0
  3  4  2  0  0  0  0
  3 25  1  0  0  0  0
  4  5  1  0  0  0  0
  4 29  1  0  0  0  0
  5  6  2  0  0  0  0
  6  7  1  0  0  0  0
  6 30  1  0  0  0  0
  7  8  1  0  0  0  0
  7 25  2  0  0  0  0
  8  9  2  0  0  0  0
  8 24  1  0  0  0  0
  9 10  1  0  0  0  0
  9 31  1  0  0  0  0
 10 11  2  0  0  0  0
 10 32  1  0  0  0  0
 11 12  1  0  0  0  0
 11 33  1  0  0  0  0
 12 24  2  0  0  0  0
 13 12  1  6  0  0  0
 13 14  1  0  0  0  0
 13 17  1  0  0  0  0
 13 22  1  0  0  0  0
 14 15  1  0  0  0  0
 14 16  1  0  0  0  0
 14 34  1  0  0  0  0
 15 16  1  0  0  0  0
 15 35  1  0  0  0  0
 15 36  1  0  0  0  0
 16 37  1  0  0  0  0
 16 38  1  0  0  0  0
 17 18  2  0  0  0  0
 17 39  1  0  0  0  0
 18 19  1  0  0  0  0
 18 20  1  0  0  0  0
 19 40  1  0  0  0  0
 19 46  1  0  0  0  0
 20 21  1  0  0  0  0
 20 22  1  0  0  0  0
 21 41  1  0  0  0  0
 21 42  1  0  0  0  0
 21 43  1  0  0  0  0
 22 23  2  0  0  0  0
 24 44  1  0  0  0  0
 25 45  1  0  0  0  0
M  CHG  1  17   1
M  END
$$$$
