p38a_2t
 OpenBabel02232411163D
Structure written by MMmdl.
 47 50  0  0  0  0  0  0  0  0999 V2000
   36.3370   36.0320   15.8200 C   0  0  0  0  0  0  0  0  0  0  0  0
   34.5690   35.0240   21.3590 C   0  0  0  0  0  0  0  0  0  0  0  0
   35.6940   35.5640   16.9620 C   0  0  0  0  0  0  0  0  0  0  0  0
   34.0640   39.1430   23.8690 C   0  0  0  0  0  0  0  0  0  0  0  0
   34.7570   37.8950   21.5050 C   0  0  0  0  0  0  0  0  0  0  0  0
   35.2110   37.2170   20.3200 C   0  0  0  0  0  0  0  0  0  0  0  0
   37.6320   36.5370   15.9950 C   0  0  0  0  0  0  0  0  0  0  0  0
   38.2910   36.5570   17.2280 C   0  0  0  0  0  0  0  0  0  0  0  0
   37.6100   36.1160   18.3670 C   0  0  0  0  0  0  0  0  0  0  0  0
   34.3370   37.1490   22.6450 C   0  0  0  0  0  0  0  0  0  0  0  0
   34.7270   39.3120   21.6250 C   0  0  0  0  0  0  0  0  0  0  0  0
   35.1590   35.8660   20.2830 C   0  0  0  0  0  0  0  0  0  0  0  0
   36.3110   35.6180   18.2280 C   0  0  0  0  0  0  0  0  0  0  0  0
   34.4790   35.0380   16.8830 F   0  0  0  0  0  0  0  0  0  0  0  0
   35.6040   35.0130   19.2770 O   0  0  0  0  0  0  0  0  0  0  0  0
   34.3930   39.9460   22.7590 N   0  0  0  0  0  0  0  0  0  0  0  0
   34.3820   33.8310   21.3030 O   0  0  0  0  0  0  0  0  0  0  0  0
   34.2280   35.7450   22.5650 N   0  0  0  0  0  0  0  0  0  0  0  0
   34.0260   37.7590   23.8300 N   0  0  0  0  0  0  0  0  0  0  0  0
   33.7060   39.7800   25.0320 N   0  0  0  0  0  0  0  0  0  0  0  0
   35.8500   36.0280   14.8420 H   0  0  0  0  0  0  0  0  0  0  0  0
   35.6000   37.8240   19.4990 H   0  0  0  0  0  0  0  0  0  0  0  0
   39.3110   36.9420   17.3120 H   0  0  0  0  0  0  0  0  0  0  0  0
   38.0880   36.1880   19.3470 H   0  0  0  0  0  0  0  0  0  0  0  0
   34.9830   39.9390   20.7550 H   0  0  0  0  0  0  0  0  0  0  0  0
   33.7990   40.8120   25.1000 H   0  0  0  0  0  0  0  0  0  0  0  0
   38.2470   37.0570   14.9350 F   0  0  0  0  0  0  0  0  0  0  0  0
   32.3870   39.1040   28.5530 C   0  0  0  0  0  0  0  0  0  0  0  0
   32.4510   39.7300   27.1540 C   0  0  0  0  0  0  0  0  0  0  0  0
   33.5760   39.0600   26.3360 C   0  0  0  0  0  0  0  0  0  0  0  0
   34.9130   39.1270   27.1070 C   0  0  0  0  0  0  0  0  0  0  0  0
   34.7350   38.5390   28.5120 C   0  0  0  0  0  0  0  0  0  0  0  0
   33.6610   39.1890   29.2310 O   0  0  0  0  0  0  0  0  0  0  0  0
   32.0750   38.0360   28.4960 H   0  0  0  0  0  0  0  0  0  0  0  0
   31.7200   39.6900   29.2260 H   0  0  0  0  0  0  0  0  0  0  0  0
   32.6460   40.8250   27.2410 H   0  0  0  0  0  0  0  0  0  0  0  0
   31.4730   39.5860   26.6330 H   0  0  0  0  0  0  0  0  0  0  0  0
   33.2990   37.9870   26.1410 H   0  0  0  0  0  0  0  0  0  0  0  0
   35.6940   38.5480   26.5600 H   0  0  0  0  0  0  0  0  0  0  0  0
   35.2500   40.1890   27.1800 H   0  0  0  0  0  0  0  0  0  0  0  0
   34.5230   37.4450   28.4620 H   0  0  0  0  0  0  0  0  0  0  0  0
   35.6180   38.7580   29.1560 H   0  0  0  0  0  0  0  0  0  0  0  0
   33.7170   34.9680   23.7390 C   0  0  0  0  0  0  0  0  0  0  0  0
   33.4750   35.6590   24.6100 H   0  0  0  0  0  0  0  0  0  0  0  0
   32.7530   34.4450   23.4570 H   0  0  0  0  0  0  0  0  0  0  0  0
   34.7130   33.9880   24.1730 C   0  0  0  0  0  0  0  0  0  0  0  0
   35.5010   33.2100   24.5010 N   0  0  0  0  0  0  0  0  0  0  0  0
  1  3  2  0  0  0  0
  1  7  1  0  0  0  0
  1 21  1  0  0  0  0
  2 12  1  0  0  0  0
  2 17  2  0  0  0  0
  2 18  1  0  0  0  0
  3 13  1  0  0  0  0
  3 14  1  0  0  0  0
  4 16  2  0  0  0  0
  4 19  1  0  0  0  0
  4 20  1  0  0  0  0
  5  6  1  0  0  0  0
  5 10  1  0  0  0  0
  5 11  2  0  0  0  0
  6 12  2  0  0  0  0
  6 22  1  0  0  0  0
  7  8  2  0  0  0  0
  7 27  1  0  0  0  0
  8  9  1  0  0  0  0
  8 23  1  0  0  0  0
  9 13  2  0  0  0  0
  9 24  1  0  0  0  0
 10 18  1  0  0  0  0
 10 19  2  0  0  0  0
 11 16  1  0  0  0  0
 11 25  1  0  0  0  0
 12 15  1  0  0  0  0
 13 15  1  0  0  0  0
 18 43  1  0  0  0  0
 20 26  1  0  0  0  0
 20 30  1  0  0  0  0
 28 29  1  0  0  0  0
 28 33  1  0  0  0  0
 28 34  1  0  0  0  0
 28 35  1  0  0  0  0
 29 30  1  0  0  0  0
 29 36  1  0  0  0  0
 29 37  1  0  0  0  0
 30 31  1  0  0  0  0
 30 38  1  0  0  0  0
 31 32  1  0  0  0  0
 31 39  1  0  0  0  0
 31 40  1  0  0  0  0
 32 33  1  0  0  0  0
 32 41  1  0  0  0  0
 32 42  1  0  0  0  0
 43 44  1  0  0  0  0
 43 45  1  0  0  0  0
 43 46  1  0  0  0  0
 46 47  3  0  0  0  0
M  END
$$$$
