17124-1
 OpenBabel02232411163D
Structure written by MMmdl.
 46 47  0  0  0  0  0  0  0  0999 V2000
   23.8380   12.6770   30.3520 C   0  0  0  0  0  0  0  0  0  0  0  0
   23.3910   11.2310   30.4570 C   0  0  0  0  0  0  0  0  0  0  0  0
   22.1410   11.3220   31.2540 O   0  0  0  0  0  0  0  0  0  0  0  0
   21.5100   10.1790   31.5960 C   0  0  0  0  0  0  0  0  0  0  0  0
   21.9900    8.9930   31.1520 N   0  0  0  0  0  0  0  0  0  0  0  0
   21.2580    7.8540   31.4590 C   0  0  0  0  0  0  0  0  0  0  0  0
   20.1040    7.8890   32.2360 C   0  0  0  0  0  0  0  0  0  0  0  0
   19.6200    9.1350   32.7140 C   0  0  0  0  0  0  0  0  0  0  0  0
   18.4810    9.1710   33.4780 N   0  0  0  0  0  0  0  0  0  0  0  0
   20.3250   10.3340   32.3760 C   0  0  0  0  0  0  0  0  0  0  0  0
   19.8990   11.6330   32.7250 C   0  0  0  0  0  0  0  0  0  0  0  0
   19.5950   12.7260   32.9670 N   0  0  0  0  0  0  0  0  0  0  0  0
   21.8170    6.6940   30.8770 N   0  0  0  0  0  0  0  0  0  0  0  0
   21.2020    5.4240   30.7840 C   0  0  0  0  0  0  0  0  0  0  0  0
   20.1260    5.1770   31.2860 O   0  0  0  0  0  0  0  0  0  0  0  0
   21.9870    4.4320   29.9350 C   0  0  0  0  0  0  0  0  0  0  0  0
   23.3120    4.0610   30.5330 C   0  0  0  0  0  0  0  0  0  0  0  0
   24.4560    4.8670   30.3020 C   0  0  0  0  0  0  0  0  0  0  0  0
   24.2010    5.9560   29.4800 O   0  0  0  0  0  0  0  0  0  0  0  0
   25.2420    6.9600   29.3410 C   0  0  0  0  0  0  0  0  0  0  0  0
   25.7030    4.5470   30.8450 C   0  0  0  0  0  0  0  0  0  0  0  0
   25.8230    3.4020   31.6310 C   0  0  0  0  0  0  0  0  0  0  0  0
   27.5220    2.9640   32.3630 Br  0  0  0  0  0  0  0  0  0  0  0  0
   24.7020    2.5810   31.8630 C   0  0  0  0  0  0  0  0  0  0  0  0
   23.4530    2.9080   31.3070 C   0  0  0  0  0  0  0  0  0  0  0  0
   24.9640    1.5010   32.6710 O   0  0  0  0  0  0  0  0  0  0  0  0
   23.9370    0.4800   32.7880 C   0  0  0  0  0  0  0  0  0  0  0  0
   24.0700   13.1050   31.3530 H   0  0  0  0  0  0  0  0  0  0  0  0
   23.0540   13.3040   29.8650 H   0  0  0  0  0  0  0  0  0  0  0  0
   24.7600   12.7210   29.7200 H   0  0  0  0  0  0  0  0  0  0  0  0
   23.1280   10.7940   29.4680 H   0  0  0  0  0  0  0  0  0  0  0  0
   24.1160   10.5980   31.0160 H   0  0  0  0  0  0  0  0  0  0  0  0
   19.5510    6.9750   32.4680 H   0  0  0  0  0  0  0  0  0  0  0  0
   17.9710    8.2990   33.7190 H   0  0  0  0  0  0  0  0  0  0  0  0
   18.0740   10.0550   33.7850 H   0  0  0  0  0  0  0  0  0  0  0  0
   22.7370    6.8340   30.3910 H   0  0  0  0  0  0  0  0  0  0  0  0
   21.3620    3.5110   29.7970 H   0  0  0  0  0  0  0  0  0  0  0  0
   22.1570    4.8980   28.9250 H   0  0  0  0  0  0  0  0  0  0  0  0
   24.7150    7.7410   28.7450 H   0  0  0  0  0  0  0  0  0  0  0  0
   25.5410    7.3520   30.3370 H   0  0  0  0  0  0  0  0  0  0  0  0
   26.1000    6.5330   28.7810 H   0  0  0  0  0  0  0  0  0  0  0  0
   26.5810    5.1760   30.6530 H   0  0  0  0  0  0  0  0  0  0  0  0
   22.5890    2.2630   31.4820 H   0  0  0  0  0  0  0  0  0  0  0  0
   24.4530   -0.2760   33.4300 H   0  0  0  0  0  0  0  0  0  0  0  0
   23.0380    0.8880   33.2980 H   0  0  0  0  0  0  0  0  0  0  0  0
   23.7030    0.0590   31.7870 H   0  0  0  0  0  0  0  0  0  0  0  0
  1  2  1  0  0  0  0
  1 28  1  0  0  0  0
  1 29  1  0  0  0  0
  1 30  1  0  0  0  0
  2  3  1  0  0  0  0
  2 31  1  0  0  0  0
  2 32  1  0  0  0  0
  3  4  1  0  0  0  0
  4 10  2  0  0  0  0
  4  5  1  0  0  0  0
  5  6  2  0  0  0  0
  6  7  1  0  0  0  0
  6 13  1  0  0  0  0
  7  8  2  0  0  0  0
  7 33  1  0  0  0  0
  8  9  1  0  0  0  0
  8 10  1  0  0  0  0
  9 34  1  0  0  0  0
  9 35  1  0  0  0  0
 10 11  1  0  0  0  0
 11 12  3  0  0  0  0
 13 14  1  0  0  0  0
 13 36  1  0  0  0  0
 14 15  2  0  0  0  0
 14 16  1  0  0  0  0
 16 17  1  0  0  0  0
 16 37  1  0  0  0  0
 16 38  1  0  0  0  0
 17 25  2  0  0  0  0
 17 18  1  0  0  0  0
 18 19  1  0  0  0  0
 18 21  2  0  0  0  0
 19 20  1  0  0  0  0
 20 39  1  0  0  0  0
 20 40  1  0  0  0  0
 20 41  1  0  0  0  0
 21 22  1  0  0  0  0
 21 42  1  0  0  0  0
 22 23  1  0  0  0  0
 22 24  2  0  0  0  0
 24 25  1  0  0  0  0
 24 26  1  0  0  0  0
 25 43  1  0  0  0  0
 26 27  1  0  0  0  0
 27 44  1  0  0  0  0
 27 45  1  0  0  0  0
 27 46  1  0  0  0  0
M  END
$$$$
