p38a_3fln
 OpenBabel02232411163D
Structure written by MMmdl.
 46 49  0  0  0  0  0  0  0  0999 V2000
   33.8450   37.9700   26.7670 C   0  0  0  0  0  0  0  0  0  0  0  0
   32.7870   36.9700   26.2810 C   0  0  0  0  0  0  0  0  0  0  0  0
   31.2370   38.7300   25.7400 C   0  0  0  0  0  0  0  0  0  0  0  0
   32.1090   39.7950   26.4020 C   0  0  0  0  0  0  0  0  0  0  0  0
   38.2260   36.5540   17.1240 C   0  0  0  0  0  0  0  0  0  0  0  0
   31.4300   37.4570   26.3850 O   0  0  0  0  0  0  0  0  0  0  0  0
   34.6750   35.1930   21.1900 C   0  0  0  0  0  0  0  0  0  0  0  0
   37.3870   36.1160   18.1460 C   0  0  0  0  0  0  0  0  0  0  0  0
   34.3090   39.2160   23.8590 C   0  0  0  0  0  0  0  0  0  0  0  0
   33.6110   39.4310   26.3560 C   0  0  0  0  0  0  0  0  0  0  0  0
   34.7230   38.0590   21.3790 C   0  0  0  0  0  0  0  0  0  0  0  0
   34.9730   37.4340   20.1100 C   0  0  0  0  0  0  0  0  0  0  0  0
   37.6240   36.7760   15.8780 C   0  0  0  0  0  0  0  0  0  0  0  0
   36.2670   36.5580   15.6270 C   0  0  0  0  0  0  0  0  0  0  0  0
   35.4470   36.1100   16.6680 C   0  0  0  0  0  0  0  0  0  0  0  0
   34.5620   37.2680   22.5550 C   0  0  0  0  0  0  0  0  0  0  0  0
   34.6380   39.4690   21.5390 C   0  0  0  0  0  0  0  0  0  0  0  0
   34.9780   36.0840   20.0420 C   0  0  0  0  0  0  0  0  0  0  0  0
   36.0120   35.8850   17.9260 C   0  0  0  0  0  0  0  0  0  0  0  0
   34.5300   35.0250   23.6890 C   0  0  0  0  0  0  0  0  0  0  0  0
   37.8790   35.9120   19.3620 F   0  0  0  0  0  0  0  0  0  0  0  0
   38.3770   37.2570   14.8920 F   0  0  0  0  0  0  0  0  0  0  0  0
   35.2110   35.2980   18.9130 O   0  0  0  0  0  0  0  0  0  0  0  0
   34.4350   40.0530   22.7250 N   0  0  0  0  0  0  0  0  0  0  0  0
   34.5050   33.9950   21.1300 O   0  0  0  0  0  0  0  0  0  0  0  0
   34.5930   35.8670   22.4620 N   0  0  0  0  0  0  0  0  0  0  0  0
   34.3560   37.8430   23.7880 N   0  0  0  0  0  0  0  0  0  0  0  0
   34.2270   39.8860   25.0650 N   0  0  0  0  0  0  0  0  0  0  0  0
   33.8710   37.9530   27.8890 H   0  0  0  0  0  0  0  0  0  0  0  0
   34.8520   37.6320   26.4100 H   0  0  0  0  0  0  0  0  0  0  0  0
   32.9570   36.6910   25.2190 H   0  0  0  0  0  0  0  0  0  0  0  0
   32.7650   36.0740   26.9460 H   0  0  0  0  0  0  0  0  0  0  0  0
   30.1580   38.9290   25.9140 H   0  0  0  0  0  0  0  0  0  0  0  0
   31.4700   38.6390   24.6560 H   0  0  0  0  0  0  0  0  0  0  0  0
   31.9280   40.7820   25.9170 H   0  0  0  0  0  0  0  0  0  0  0  0
   31.8290   39.8930   27.4810 H   0  0  0  0  0  0  0  0  0  0  0  0
   39.2890   36.7510   17.2930 H   0  0  0  0  0  0  0  0  0  0  0  0
   34.1490   40.0850   27.1160 H   0  0  0  0  0  0  0  0  0  0  0  0
   35.1610   38.0730   19.2450 H   0  0  0  0  0  0  0  0  0  0  0  0
   35.8360   36.7490   14.6420 H   0  0  0  0  0  0  0  0  0  0  0  0
   34.3790   35.9510   16.4920 H   0  0  0  0  0  0  0  0  0  0  0  0
   34.7230   40.1280   20.6590 H   0  0  0  0  0  0  0  0  0  0  0  0
   35.0440   35.5420   24.5440 H   0  0  0  0  0  0  0  0  0  0  0  0
   33.4610   34.8290   23.9660 H   0  0  0  0  0  0  0  0  0  0  0  0
   35.0450   34.0450   23.5050 H   0  0  0  0  0  0  0  0  0  0  0  0
   34.1610   40.9300   25.0000 H   0  0  0  0  0  0  0  0  0  0  0  0
  1  2  1  0  0  0  0
  1 10  1  0  0  0  0
  1 29  1  0  0  0  0
  1 30  1  0  0  0  0
  2  6  1  0  0  0  0
  2 31  1  0  0  0  0
  2 32  1  0  0  0  0
  3  4  1  0  0  0  0
  3  6  1  0  0  0  0
  3 33  1  0  0  0  0
  3 34  1  0  0  0  0
  4 10  1  0  0  0  0
  4 35  1  0  0  0  0
  4 36  1  0  0  0  0
  5  8  2  0  0  0  0
  5 13  1  0  0  0  0
  5 37  1  0  0  0  0
  7 18  1  0  0  0  0
  7 25  2  0  0  0  0
  7 26  1  0  0  0  0
  8 19  1  0  0  0  0
  8 21  1  0  0  0  0
  9 24  2  0  0  0  0
  9 27  1  0  0  0  0
  9 28  1  0  0  0  0
 10 28  1  0  0  0  0
 10 38  1  0  0  0  0
 11 12  1  0  0  0  0
 11 16  1  0  0  0  0
 11 17  2  0  0  0  0
 12 18  2  0  0  0  0
 12 39  1  0  0  0  0
 13 14  2  0  0  0  0
 13 22  1  0  0  0  0
 14 15  1  0  0  0  0
 14 40  1  0  0  0  0
 15 19  2  0  0  0  0
 15 41  1  0  0  0  0
 16 26  1  0  0  0  0
 16 27  2  0  0  0  0
 17 24  1  0  0  0  0
 17 42  1  0  0  0  0
 18 23  1  0  0  0  0
 19 23  1  0  0  0  0
 20 26  1  0  0  0  0
 20 43  1  0  0  0  0
 20 44  1  0  0  0  0
 20 45  1  0  0  0  0
 28 46  1  0  0  0  0
M  END
$$$$
