p38a_2r
 OpenBabel02232411163D
Structure written by MMmdl.
 56 59  0  0  0  0  0  0  0  0999 V2000
   38.2130   36.4850   17.2410 C   0  0  0  0  0  0  0  0  0  0  0  0
   34.5050   35.0220   21.2840 C   0  0  0  0  0  0  0  0  0  0  0  0
   37.3990   36.0460   18.2800 C   0  0  0  0  0  0  0  0  0  0  0  0
   34.0330   39.0470   23.9500 C   0  0  0  0  0  0  0  0  0  0  0  0
   34.6260   37.9000   21.5120 C   0  0  0  0  0  0  0  0  0  0  0  0
   34.9810   37.2770   20.2650 C   0  0  0  0  0  0  0  0  0  0  0  0
   37.5950   36.6560   15.9940 C   0  0  0  0  0  0  0  0  0  0  0  0
   36.2450   36.3840   15.7610 C   0  0  0  0  0  0  0  0  0  0  0  0
   35.4500   35.9350   16.8210 C   0  0  0  0  0  0  0  0  0  0  0  0
   34.2280   37.1010   22.6270 C   0  0  0  0  0  0  0  0  0  0  0  0
   34.6700   39.3050   21.7080 C   0  0  0  0  0  0  0  0  0  0  0  0
   34.9460   35.9280   20.1840 C   0  0  0  0  0  0  0  0  0  0  0  0
   36.0320   35.7570   18.0800 C   0  0  0  0  0  0  0  0  0  0  0  0
   37.9090   35.8910   19.4960 F   0  0  0  0  0  0  0  0  0  0  0  0
   35.2710   35.1390   19.0810 O   0  0  0  0  0  0  0  0  0  0  0  0
   34.3890   39.8940   22.8810 N   0  0  0  0  0  0  0  0  0  0  0  0
   34.4810   33.8170   21.2150 O   0  0  0  0  0  0  0  0  0  0  0  0
   34.1360   35.7040   22.5060 N   0  0  0  0  0  0  0  0  0  0  0  0
   33.9470   37.6710   23.8420 N   0  0  0  0  0  0  0  0  0  0  0  0
   33.7460   39.6270   25.1620 N   0  0  0  0  0  0  0  0  0  0  0  0
   39.2710   36.7230   17.3920 H   0  0  0  0  0  0  0  0  0  0  0  0
   35.2810   37.9200   19.4340 H   0  0  0  0  0  0  0  0  0  0  0  0
   35.8000   36.5340   14.7750 H   0  0  0  0  0  0  0  0  0  0  0  0
   34.3850   35.7410   16.6570 H   0  0  0  0  0  0  0  0  0  0  0  0
   34.9390   39.9680   20.8690 H   0  0  0  0  0  0  0  0  0  0  0  0
   33.7980   40.6560   25.2700 H   0  0  0  0  0  0  0  0  0  0  0  0
   38.3260   37.1370   14.9910 F   0  0  0  0  0  0  0  0  0  0  0  0
   33.3000   40.5820   28.2140 C   0  0  0  0  0  0  0  0  0  0  0  0
   32.4410   39.7280   27.2740 C   0  0  0  0  0  0  0  0  0  0  0  0
   33.2690   38.8260   26.3350 C   0  0  0  0  0  0  0  0  0  0  0  0
   34.4400   38.1560   27.0840 C   0  0  0  0  0  0  0  0  0  0  0  0
   35.2090   39.1430   27.9620 C   0  0  0  0  0  0  0  0  0  0  0  0
   34.3210   39.8160   28.8860 O   0  0  0  0  0  0  0  0  0  0  0  0
   32.6930   40.9720   29.0630 H   0  0  0  0  0  0  0  0  0  0  0  0
   33.7930   41.4090   27.6560 H   0  0  0  0  0  0  0  0  0  0  0  0
   31.7910   40.4050   26.6670 H   0  0  0  0  0  0  0  0  0  0  0  0
   31.7740   39.0620   27.8770 H   0  0  0  0  0  0  0  0  0  0  0  0
   32.5900   38.0130   25.9410 H   0  0  0  0  0  0  0  0  0  0  0  0
   34.0090   37.3390   27.7180 H   0  0  0  0  0  0  0  0  0  0  0  0
   35.1390   37.6790   26.3550 H   0  0  0  0  0  0  0  0  0  0  0  0
   35.9080   38.6180   28.6510 H   0  0  0  0  0  0  0  0  0  0  0  0
   35.7300   39.9090   27.3440 H   0  0  0  0  0  0  0  0  0  0  0  0
   33.6170   34.8890   23.6420 C   0  0  0  0  0  0  0  0  0  0  0  0
   34.1420   33.8950   23.6290 H   0  0  0  0  0  0  0  0  0  0  0  0
   33.8610   35.3990   24.6200 H   0  0  0  0  0  0  0  0  0  0  0  0
   32.0690   34.6550   23.5920 C   0  0  0  0  0  0  0  0  0  0  0  0
   31.7500   34.3260   22.2190 O   0  0  0  0  0  0  0  0  0  0  0  0
   31.0220   34.9030   21.9000 H   0  0  0  0  0  0  0  0  0  0  0  0
   31.2620   35.8790   24.0330 C   0  0  0  0  0  0  0  0  0  0  0  0
   31.5580   36.7910   23.4780 H   0  0  0  0  0  0  0  0  0  0  0  0
   30.1710   35.7040   23.8850 H   0  0  0  0  0  0  0  0  0  0  0  0
   31.4230   36.0760   25.1200 H   0  0  0  0  0  0  0  0  0  0  0  0
   31.7140   33.4280   24.4440 C   0  0  0  0  0  0  0  0  0  0  0  0
   30.6100   33.2670   24.4500 H   0  0  0  0  0  0  0  0  0  0  0  0
   32.1990   32.5030   24.0610 H   0  0  0  0  0  0  0  0  0  0  0  0
   32.0390   33.5840   25.5010 H   0  0  0  0  0  0  0  0  0  0  0  0
  1  3  2  0  0  0  0
  1  7  1  0  0  0  0
  1 21  1  0  0  0  0
  2 12  1  0  0  0  0
  2 17  2  0  0  0  0
  2 18  1  0  0  0  0
  3 13  1  0  0  0  0
  3 14  1  0  0  0  0
  4 16  2  0  0  0  0
  4 19  1  0  0  0  0
  4 20  1  0  0  0  0
  5  6  1  0  0  0  0
  5 10  1  0  0  0  0
  5 11  2  0  0  0  0
  6 12  2  0  0  0  0
  6 22  1  0  0  0  0
  7  8  2  0  0  0  0
  7 27  1  0  0  0  0
  8  9  1  0  0  0  0
  8 23  1  0  0  0  0
  9 13  2  0  0  0  0
  9 24  1  0  0  0  0
 10 18  1  0  0  0  0
 10 19  2  0  0  0  0
 11 16  1  0  0  0  0
 11 25  1  0  0  0  0
 12 15  1  0  0  0  0
 13 15  1  0  0  0  0
 18 43  1  0  0  0  0
 20 26  1  0  0  0  0
 20 30  1  0  0  0  0
 28 29  1  0  0  0  0
 28 33  1  0  0  0  0
 28 34  1  0  0  0  0
 28 35  1  0  0  0  0
 29 30  1  0  0  0  0
 29 36  1  0  0  0  0
 29 37  1  0  0  0  0
 30 31  1  0  0  0  0
 30 38  1  0  0  0  0
 31 32  1  0  0  0  0
 31 39  1  0  0  0  0
 31 40  1  0  0  0  0
 32 33  1  0  0  0  0
 32 41  1  0  0  0  0
 32 42  1  0  0  0  0
 43 44  1  0  0  0  0
 43 45  1  0  0  0  0
 43 46  1  0  0  0  0
 46 47  1  0  0  0  0
 46 49  1  0  0  0  0
 46 53  1  0  0  0  0
 47 48  1  0  0  0  0
 49 50  1  0  0  0  0
 49 51  1  0  0  0  0
 49 52  1  0  0  0  0
 53 54  1  0  0  0  0
 53 55  1  0  0  0  0
 53 56  1  0  0  0  0
M  END
$$$$
