p38a_3flw
 OpenBabel02232411163D
Structure written by MMmdl.
 49 51  0  0  0  0  0  0  0  0999 V2000
   38.2540   36.5140   17.1870 C   0  0  0  0  0  0  0  0  0  0  0  0
   37.6190   36.6760   15.9470 C   0  0  0  0  0  0  0  0  0  0  0  0
   34.1400   39.7160   27.5050 C   0  0  0  0  0  0  0  0  0  0  0  0
   33.4930   39.1170   28.7690 C   0  0  0  0  0  0  0  0  0  0  0  0
   31.9560   39.6760   26.1600 C   0  0  0  0  0  0  0  0  0  0  0  0
   33.9770   35.1110   23.7370 C   0  0  0  0  0  0  0  0  0  0  0  0
   37.9760   35.9310   19.4490 F   0  0  0  0  0  0  0  0  0  0  0  0
   37.4550   36.0720   18.2370 C   0  0  0  0  0  0  0  0  0  0  0  0
   38.3320   37.1660   14.9360 F   0  0  0  0  0  0  0  0  0  0  0  0
   36.2700   36.3890   15.7290 C   0  0  0  0  0  0  0  0  0  0  0  0
   35.4900   35.9360   16.8000 C   0  0  0  0  0  0  0  0  0  0  0  0
   36.0880   35.7710   18.0520 C   0  0  0  0  0  0  0  0  0  0  0  0
   35.3410   35.1740   19.0760 O   0  0  0  0  0  0  0  0  0  0  0  0
   35.0190   36.0050   20.1480 C   0  0  0  0  0  0  0  0  0  0  0  0
   35.0610   37.3560   20.1780 C   0  0  0  0  0  0  0  0  0  0  0  0
   34.7420   38.0300   21.4070 C   0  0  0  0  0  0  0  0  0  0  0  0
   34.7430   39.4430   21.5370 C   0  0  0  0  0  0  0  0  0  0  0  0
   34.5220   40.0690   22.7030 N   0  0  0  0  0  0  0  0  0  0  0  0
   34.5710   35.1580   21.2860 C   0  0  0  0  0  0  0  0  0  0  0  0
   34.4000   33.9590   21.2470 O   0  0  0  0  0  0  0  0  0  0  0  0
   34.3370   35.8760   22.5100 N   0  0  0  0  0  0  0  0  0  0  0  0
   34.4230   37.2760   22.5760 C   0  0  0  0  0  0  0  0  0  0  0  0
   34.1840   37.8860   23.7840 N   0  0  0  0  0  0  0  0  0  0  0  0
   34.2720   39.2620   23.8280 C   0  0  0  0  0  0  0  0  0  0  0  0
   34.1750   39.9010   25.0540 N   0  0  0  0  0  0  0  0  0  0  0  0
   33.4490   39.2730   26.2010 C   0  0  0  0  0  0  0  0  0  0  0  0
   31.0810   38.5630   25.5850 C   0  0  0  0  0  0  0  0  0  0  0  0
   31.1020   37.4280   26.4800 O   0  0  0  0  0  0  0  0  0  0  0  0
   33.0310   37.7730   28.6000 O   0  0  0  0  0  0  0  0  0  0  0  0
   39.3100   36.7610   17.3280 H   0  0  0  0  0  0  0  0  0  0  0  0
   34.1120   40.8330   27.5920 H   0  0  0  0  0  0  0  0  0  0  0  0
   35.2150   39.4090   27.4540 H   0  0  0  0  0  0  0  0  0  0  0  0
   34.2540   39.0340   29.5820 H   0  0  0  0  0  0  0  0  0  0  0  0
   32.6340   39.7480   29.1010 H   0  0  0  0  0  0  0  0  0  0  0  0
   31.6060   39.9030   27.1940 H   0  0  0  0  0  0  0  0  0  0  0  0
   31.8110   40.6060   25.5620 H   0  0  0  0  0  0  0  0  0  0  0  0
   32.9360   35.3840   24.0600 H   0  0  0  0  0  0  0  0  0  0  0  0
   34.0240   34.0090   23.5350 H   0  0  0  0  0  0  0  0  0  0  0  0
   34.6890   35.3640   24.5680 H   0  0  0  0  0  0  0  0  0  0  0  0
   35.8110   36.5300   14.7480 H   0  0  0  0  0  0  0  0  0  0  0  0
   34.4260   35.7300   16.6500 H   0  0  0  0  0  0  0  0  0  0  0  0
   35.3410   37.9630   19.3150 H   0  0  0  0  0  0  0  0  0  0  0  0
   34.9140   40.0740   20.6500 H   0  0  0  0  0  0  0  0  0  0  0  0
   34.1290   40.9430   25.0620 H   0  0  0  0  0  0  0  0  0  0  0  0
   33.5370   38.1500   26.1230 H   0  0  0  0  0  0  0  0  0  0  0  0
   30.0470   38.9320   25.4570 H   0  0  0  0  0  0  0  0  0  0  0  0
   31.5010   38.1470   24.6420 H   0  0  0  0  0  0  0  0  0  0  0  0
   30.2350   37.3980   27.0090 H   0  0  0  0  0  0  0  0  0  0  0  0
   32.3140   37.7620   27.8850 H   0  0  0  0  0  0  0  0  0  0  0  0
  1  2  2  0  0  0  0
  1  8  1  0  0  0  0
  1 30  1  0  0  0  0
  2  9  1  0  0  0  0
  2 10  1  0  0  0  0
  3  4  1  0  0  0  0
  3 26  1  0  0  0  0
  3 31  1  0  0  0  0
  3 32  1  0  0  0  0
  4 29  1  0  0  0  0
  4 33  1  0  0  0  0
  4 34  1  0  0  0  0
  5 26  1  0  0  0  0
  5 27  1  0  0  0  0
  5 35  1  0  0  0  0
  5 36  1  0  0  0  0
  6 21  1  0  0  0  0
  6 37  1  0  0  0  0
  6 38  1  0  0  0  0
  6 39  1  0  0  0  0
  7  8  1  0  0  0  0
  8 12  2  0  0  0  0
 10 11  2  0  0  0  0
 10 40  1  0  0  0  0
 11 12  1  0  0  0  0
 11 41  1  0  0  0  0
 12 13  1  0  0  0  0
 13 14  1  0  0  0  0
 14 15  2  0  0  0  0
 14 19  1  0  0  0  0
 15 16  1  0  0  0  0
 15 42  1  0  0  0  0
 16 17  2  0  0  0  0
 16 22  1  0  0  0  0
 17 18  1  0  0  0  0
 17 43  1  0  0  0  0
 18 24  2  0  0  0  0
 19 20  2  0  0  0  0
 19 21  1  0  0  0  0
 21 22  1  0  0  0  0
 22 23  2  0  0  0  0
 23 24  1  0  0  0  0
 24 25  1  0  0  0  0
 25 26  1  0  0  0  0
 25 44  1  0  0  0  0
 26 45  1  0  0  0  0
 27 28  1  0  0  0  0
 27 46  1  0  0  0  0
 27 47  1  0  0  0  0
 28 48  1  0  0  0  0
 29 49  1  0  0  0  0
M  END
$$$$
