p38a_2x
 OpenBabel02232411163D
Structure written by MMmdl.
 43 46  0  0  1  0  0  0  0  0999 V2000
   36.3580   36.0540   15.7930 C   0  0  0  0  0  0  0  0  0  0  0  0
   34.5140   35.0150   21.2860 C   0  0  0  0  0  0  0  0  0  0  0  0
   35.7210   35.5690   16.9310 C   0  0  0  0  0  0  0  0  0  0  0  0
   33.9430   39.1200   23.7800 C   0  0  0  0  0  0  0  0  0  0  0  0
   34.7760   37.8760   21.4660 C   0  0  0  0  0  0  0  0  0  0  0  0
   35.2750   37.1950   20.3010 C   0  0  0  0  0  0  0  0  0  0  0  0
   37.6510   36.5620   15.9700 C   0  0  0  0  0  0  0  0  0  0  0  0
   38.3140   36.5690   17.2010 C   0  0  0  0  0  0  0  0  0  0  0  0
   37.6390   36.1090   18.3370 C   0  0  0  0  0  0  0  0  0  0  0  0
   34.2330   37.1340   22.5560 C   0  0  0  0  0  0  0  0  0  0  0  0
   34.8090   39.2880   21.6040 C   0  0  0  0  0  0  0  0  0  0  0  0
   35.1790   35.8470   20.2450 C   0  0  0  0  0  0  0  0  0  0  0  0
   36.3410   35.6090   18.1960 C   0  0  0  0  0  0  0  0  0  0  0  0
   33.5170   34.9850   23.6040 C   0  0  0  0  0  0  0  0  0  0  0  0
   34.5070   35.0400   16.8490 F   0  0  0  0  0  0  0  0  0  0  0  0
   35.6350   34.9970   19.2410 O   0  0  0  0  0  0  0  0  0  0  0  0
   34.4110   39.9200   22.7180 N   0  0  0  0  0  0  0  0  0  0  0  0
   34.3050   33.8250   21.2020 O   0  0  0  0  0  0  0  0  0  0  0  0
   34.1030   35.7390   22.4600 N   0  0  0  0  0  0  0  0  0  0  0  0
   33.8180   37.7500   23.7140 N   0  0  0  0  0  0  0  0  0  0  0  0
   33.6570   39.7960   24.9510 N   0  0  0  0  0  0  0  0  0  0  0  0
   35.8690   36.0610   14.8160 H   0  0  0  0  0  0  0  0  0  0  0  0
   35.7280   37.7970   19.5100 H   0  0  0  0  0  0  0  0  0  0  0  0
   39.3330   36.9560   17.2870 H   0  0  0  0  0  0  0  0  0  0  0  0
   38.1220   36.1680   19.3150 H   0  0  0  0  0  0  0  0  0  0  0  0
   35.1630   39.9130   20.7690 H   0  0  0  0  0  0  0  0  0  0  0  0
   34.1540   35.1290   24.5190 H   0  0  0  0  0  0  0  0  0  0  0  0
   32.4840   35.3670   23.8240 H   0  0  0  0  0  0  0  0  0  0  0  0
   33.4630   33.8920   23.3620 H   0  0  0  0  0  0  0  0  0  0  0  0
   33.7150   40.8380   24.9310 H   0  0  0  0  0  0  0  0  0  0  0  0
   38.2620   37.0970   14.9150 F   0  0  0  0  0  0  0  0  0  0  0  0
   32.4550   37.4180   27.5160 O   0  0  0  0  0  0  0  0  0  0  0  0
   31.2330   37.5780   26.7340 C   0  0  0  0  0  0  0  0  0  0  0  0
   31.4670   38.6840   25.6970 C   0  0  0  0  0  0  0  0  0  0  0  0
   32.8370   39.2930   26.0790 C   0  0  1  0  0  0  0  0  0  0  0  0
   33.5280   38.1760   26.9040 C   0  0  0  0  0  0  0  0  0  0  0  0
   30.4560   37.8500   27.4820 H   0  0  0  0  0  0  0  0  0  0  0  0
   31.0260   36.5920   26.2640 H   0  0  0  0  0  0  0  0  0  0  0  0
   31.4850   38.2520   24.6690 H   0  0  0  0  0  0  0  0  0  0  0  0
   30.6690   39.4550   25.7290 H   0  0  0  0  0  0  0  0  0  0  0  0
   32.6730   40.1970   26.7380 H   0  0  0  0  0  0  0  0  0  0  0  0
   34.1180   38.5780   27.7550 H   0  0  0  0  0  0  0  0  0  0  0  0
   34.1190   37.4790   26.2710 H   0  0  0  0  0  0  0  0  0  0  0  0
  1  3  2  0  0  0  0
  1  7  1  0  0  0  0
  1 22  1  0  0  0  0
  2 12  1  0  0  0  0
  2 18  2  0  0  0  0
  2 19  1  0  0  0  0
  3 13  1  0  0  0  0
  3 15  1  0  0  0  0
  4 17  2  0  0  0  0
  4 20  1  0  0  0  0
  4 21  1  0  0  0  0
  5  6  1  0  0  0  0
  5 10  1  0  0  0  0
  5 11  2  0  0  0  0
  6 12  2  0  0  0  0
  6 23  1  0  0  0  0
  7  8  2  0  0  0  0
  7 31  1  0  0  0  0
  8  9  1  0  0  0  0
  8 24  1  0  0  0  0
  9 13  2  0  0  0  0
  9 25  1  0  0  0  0
 10 19  1  0  0  0  0
 10 20  2  0  0  0  0
 11 17  1  0  0  0  0
 11 26  1  0  0  0  0
 12 16  1  0  0  0  0
 13 16  1  0  0  0  0
 14 19  1  0  0  0  0
 14 27  1  0  0  0  0
 14 28  1  0  0  0  0
 14 29  1  0  0  0  0
 21 30  1  0  0  0  0
 21 35  1  0  0  0  0
 32 33  1  0  0  0  0
 32 36  1  0  0  0  0
 33 34  1  0  0  0  0
 33 37  1  0  0  0  0
 33 38  1  0  0  0  0
 34 35  1  0  0  0  0
 34 39  1  0  0  0  0
 34 40  1  0  0  0  0
 35 36  1  0  0  0  0
 35 41  1  1  0  0  0
 36 42  1  0  0  0  0
 36 43  1  0  0  0  0
M  END
$$$$
