p38a_2u
 OpenBabel02232411163D
Structure written by MMmdl.
 64 68  0  0  0  0  0  0  0  0999 V2000
   38.2510   36.5030   17.2050 C   0  0  0  0  0  0  0  0  0  0  0  0
   34.5620   35.0950   21.3040 C   0  0  0  0  0  0  0  0  0  0  0  0
   37.4590   36.0610   18.2610 C   0  0  0  0  0  0  0  0  0  0  0  0
   33.9910   39.1910   23.8170 C   0  0  0  0  0  0  0  0  0  0  0  0
   34.6340   37.9760   21.4250 C   0  0  0  0  0  0  0  0  0  0  0  0
   35.0090   37.3140   20.2060 C   0  0  0  0  0  0  0  0  0  0  0  0
   37.6090   36.6630   15.9690 C   0  0  0  0  0  0  0  0  0  0  0  0
   36.2570   36.3770   15.7600 C   0  0  0  0  0  0  0  0  0  0  0  0
   35.4860   35.9230   16.8350 C   0  0  0  0  0  0  0  0  0  0  0  0
   34.3010   37.2060   22.5780 C   0  0  0  0  0  0  0  0  0  0  0  0
   34.5980   39.3900   21.5630 C   0  0  0  0  0  0  0  0  0  0  0  0
   35.0030   35.9630   20.1750 C   0  0  0  0  0  0  0  0  0  0  0  0
   36.0930   35.7570   18.0830 C   0  0  0  0  0  0  0  0  0  0  0  0
   37.9880   35.9220   19.4700 F   0  0  0  0  0  0  0  0  0  0  0  0
   35.3620   35.1410   19.1080 O   0  0  0  0  0  0  0  0  0  0  0  0
   34.2970   40.0120   22.7140 N   0  0  0  0  0  0  0  0  0  0  0  0
   34.4440   33.8910   21.2340 O   0  0  0  0  0  0  0  0  0  0  0  0
   34.2820   35.7970   22.5300 N   0  0  0  0  0  0  0  0  0  0  0  0
   33.9930   37.8110   23.7690 N   0  0  0  0  0  0  0  0  0  0  0  0
   33.6030   39.8000   24.9900 N   0  0  0  0  0  0  0  0  0  0  0  0
   39.3080   36.7510   17.3410 H   0  0  0  0  0  0  0  0  0  0  0  0
   35.2960   37.9300   19.3500 H   0  0  0  0  0  0  0  0  0  0  0  0
   35.7920   36.5190   14.7820 H   0  0  0  0  0  0  0  0  0  0  0  0
   34.4190   35.7180   16.6960 H   0  0  0  0  0  0  0  0  0  0  0  0
   34.8220   40.0300   20.6920 H   0  0  0  0  0  0  0  0  0  0  0  0
   33.7350   40.8230   25.1040 H   0  0  0  0  0  0  0  0  0  0  0  0
   38.3170   37.1480   14.9520 F   0  0  0  0  0  0  0  0  0  0  0  0
   32.3190   39.1100   28.5190 C   0  0  0  0  0  0  0  0  0  0  0  0
   32.4210   39.7910   27.1490 C   0  0  0  0  0  0  0  0  0  0  0  0
   33.4290   39.0300   26.2600 C   0  0  0  0  0  0  0  0  0  0  0  0
   34.7830   38.8640   26.9880 C   0  0  0  0  0  0  0  0  0  0  0  0
   34.5600   38.2480   28.3750 C   0  0  0  0  0  0  0  0  0  0  0  0
   33.6150   39.0170   29.1550 O   0  0  0  0  0  0  0  0  0  0  0  0
   31.8860   38.0870   28.4240 H   0  0  0  0  0  0  0  0  0  0  0  0
   31.7430   39.7340   29.2400 H   0  0  0  0  0  0  0  0  0  0  0  0
   32.7550   40.8470   27.2830 H   0  0  0  0  0  0  0  0  0  0  0  0
   31.4220   39.7930   26.6530 H   0  0  0  0  0  0  0  0  0  0  0  0
   33.0100   38.0140   26.0160 H   0  0  0  0  0  0  0  0  0  0  0  0
   35.4440   38.1880   26.3950 H   0  0  0  0  0  0  0  0  0  0  0  0
   35.2830   39.8560   27.0880 H   0  0  0  0  0  0  0  0  0  0  0  0
   34.1850   37.2010   28.2880 H   0  0  0  0  0  0  0  0  0  0  0  0
   35.4830   38.3010   28.9950 H   0  0  0  0  0  0  0  0  0  0  0  0
   34.6460   33.2380   25.4080 C   0  0  0  0  0  0  0  0  0  0  0  0
   35.0100   33.9960   24.1160 C   0  0  0  0  0  0  0  0  0  0  0  0
   33.9170   35.0310   23.7850 C   0  0  0  0  0  0  0  0  0  0  0  0
   32.5170   34.3990   23.6470 C   0  0  0  0  0  0  0  0  0  0  0  0
   32.4800   32.9520   24.1820 C   0  0  0  0  0  0  0  0  0  0  0  0
   34.8640   33.9120   26.2810 H   0  0  0  0  0  0  0  0  0  0  0  0
   35.2940   32.3250   25.4720 H   0  0  0  0  0  0  0  0  0  0  0  0
   35.1230   33.2720   23.2740 H   0  0  0  0  0  0  0  0  0  0  0  0
   35.9790   34.5250   24.2780 H   0  0  0  0  0  0  0  0  0  0  0  0
   33.8860   35.7650   24.6450 H   0  0  0  0  0  0  0  0  0  0  0  0
   31.7870   35.0360   24.2050 H   0  0  0  0  0  0  0  0  0  0  0  0
   32.1840   34.3800   22.5820 H   0  0  0  0  0  0  0  0  0  0  0  0
   31.4100   32.6470   24.3270 H   0  0  0  0  0  0  0  0  0  0  0  0
   32.9480   32.2720   23.4220 H   0  0  0  0  0  0  0  0  0  0  0  0
   33.2310   32.7600   25.4500 N   0  0  0  0  0  0  0  0  0  0  0  0
   32.3710   32.8910   26.9370 S   0  0  0  0  0  0  0  0  0  0  0  0
   33.0140   31.9600   27.8860 O   0  0  0  0  0  0  0  0  0  0  0  0
   30.9710   32.5070   26.6660 O   0  0  0  0  0  0  0  0  0  0  0  0
   32.4990   34.5270   27.4920 C   0  0  0  0  0  0  0  0  0  0  0  0
   33.4930   34.7590   27.9600 H   0  0  0  0  0  0  0  0  0  0  0  0
   32.3380   35.2840   26.6800 H   0  0  0  0  0  0  0  0  0  0  0  0
   31.7330   34.7660   28.2790 H   0  0  0  0  0  0  0  0  0  0  0  0
  1  3  2  0  0  0  0
  1  7  1  0  0  0  0
  1 21  1  0  0  0  0
  2 12  1  0  0  0  0
  2 17  2  0  0  0  0
  2 18  1  0  0  0  0
  3 13  1  0  0  0  0
  3 14  1  0  0  0  0
  4 16  2  0  0  0  0
  4 19  1  0  0  0  0
  4 20  1  0  0  0  0
  5  6  1  0  0  0  0
  5 10  1  0  0  0  0
  5 11  2  0  0  0  0
  6 12  2  0  0  0  0
  6 22  1  0  0  0  0
  7  8  2  0  0  0  0
  7 27  1  0  0  0  0
  8  9  1  0  0  0  0
  8 23  1  0  0  0  0
  9 13  2  0  0  0  0
  9 24  1  0  0  0  0
 10 18  1  0  0  0  0
 10 19  2  0  0  0  0
 11 16  1  0  0  0  0
 11 25  1  0  0  0  0
 12 15  1  0  0  0  0
 13 15  1  0  0  0  0
 18 45  1  0  0  0  0
 20 26  1  0  0  0  0
 20 30  1  0  0  0  0
 28 29  1  0  0  0  0
 28 33  1  0  0  0  0
 28 34  1  0  0  0  0
 28 35  1  0  0  0  0
 29 30  1  0  0  0  0
 29 36  1  0  0  0  0
 29 37  1  0  0  0  0
 30 31  1  0  0  0  0
 30 38  1  0  0  0  0
 31 32  1  0  0  0  0
 31 39  1  0  0  0  0
 31 40  1  0  0  0  0
 32 33  1  0  0  0  0
 32 41  1  0  0  0  0
 32 42  1  0  0  0  0
 43 44  1  0  0  0  0
 43 48  1  0  0  0  0
 43 49  1  0  0  0  0
 43 57  1  0  0  0  0
 44 45  1  0  0  0  0
 44 50  1  0  0  0  0
 44 51  1  0  0  0  0
 45 46  1  0  0  0  0
 45 52  1  0  0  0  0
 46 47  1  0  0  0  0
 46 53  1  0  0  0  0
 46 54  1  0  0  0  0
 47 55  1  0  0  0  0
 47 56  1  0  0  0  0
 47 57  1  0  0  0  0
 57 58  1  0  0  0  0
 58 59  2  0  0  0  0
 58 60  2  0  0  0  0
 58 61  1  0  0  0  0
 61 62  1  0  0  0  0
 61 63  1  0  0  0  0
 61 64  1  0  0  0  0
M  END
$$$$
