18639-1
 OpenBabel02232411163D
Structure written by MMmdl.
 48 49  0  0  0  0  0  0  0  0999 V2000
   23.1940   10.7890   29.0640 C   0  0  0  0  0  0  0  0  0  0  0  0
   23.4780   11.0350   30.5310 C   0  0  0  0  0  0  0  0  0  0  0  0
   22.2170   11.1450   31.2940 O   0  0  0  0  0  0  0  0  0  0  0  0
   21.5570   10.0170   31.6400 C   0  0  0  0  0  0  0  0  0  0  0  0
   22.0230    8.8190   31.2180 N   0  0  0  0  0  0  0  0  0  0  0  0
   21.2760    7.6950   31.5310 C   0  0  0  0  0  0  0  0  0  0  0  0
   20.1110    7.7500   32.2870 C   0  0  0  0  0  0  0  0  0  0  0  0
   19.6430    9.0100   32.7510 C   0  0  0  0  0  0  0  0  0  0  0  0
   18.4910    9.0680   33.4920 N   0  0  0  0  0  0  0  0  0  0  0  0
   20.3750   10.1950   32.4190 C   0  0  0  0  0  0  0  0  0  0  0  0
   19.9830   11.5010   32.7840 C   0  0  0  0  0  0  0  0  0  0  0  0
   19.7130   12.5990   33.0430 N   0  0  0  0  0  0  0  0  0  0  0  0
   21.8500    6.5270   30.9770 N   0  0  0  0  0  0  0  0  0  0  0  0
   21.2420    5.2600   30.8740 C   0  0  0  0  0  0  0  0  0  0  0  0
   20.1440    5.0170   31.3240 O   0  0  0  0  0  0  0  0  0  0  0  0
   22.0670    4.2580   30.0720 C   0  0  0  0  0  0  0  0  0  0  0  0
   23.4350    3.9900   30.6280 C   0  0  0  0  0  0  0  0  0  0  0  0
   24.5310    4.8510   30.3040 C   0  0  0  0  0  0  0  0  0  0  0  0
   24.1720    5.8950   29.4600 O   0  0  0  0  0  0  0  0  0  0  0  0
   25.1240    6.9840   29.2970 C   0  0  0  0  0  0  0  0  0  0  0  0
   25.8110    4.6120   30.7790 C   0  0  0  0  0  0  0  0  0  0  0  0
   26.0420    3.5020   31.6180 C   0  0  0  0  0  0  0  0  0  0  0  0
   27.3950    3.2510   32.1230 N   0  3  0  0  0  0  0  0  0  0  0  0
   27.5270    2.4740   33.0570 O   0  5  0  0  0  0  0  0  0  0  0  0
   28.3360    3.8220   31.5860 O   0  0  0  0  0  0  0  0  0  0  0  0
   24.9710    2.6380   31.9440 C   0  0  0  0  0  0  0  0  0  0  0  0
   23.6760    2.8890   31.4330 C   0  0  0  0  0  0  0  0  0  0  0  0
   25.3190    1.6040   32.7600 O   0  0  0  0  0  0  0  0  0  0  0  0
   24.3230    0.5680   33.0060 C   0  0  0  0  0  0  0  0  0  0  0  0
   24.1510   10.8510   28.4890 H   0  0  0  0  0  0  0  0  0  0  0  0
   22.4930   11.5510   28.6540 H   0  0  0  0  0  0  0  0  0  0  0  0
   22.7560    9.7770   28.9020 H   0  0  0  0  0  0  0  0  0  0  0  0
   23.8900   12.0560   30.7170 H   0  0  0  0  0  0  0  0  0  0  0  0
   24.1140   10.2360   30.9760 H   0  0  0  0  0  0  0  0  0  0  0  0
   19.5410    6.8470   32.5120 H   0  0  0  0  0  0  0  0  0  0  0  0
   17.9860    8.2010   33.7610 H   0  0  0  0  0  0  0  0  0  0  0  0
   18.1010    9.9580   33.8010 H   0  0  0  0  0  0  0  0  0  0  0  0
   22.7730    6.6730   30.4950 H   0  0  0  0  0  0  0  0  0  0  0  0
   21.4940    3.2950   30.0130 H   0  0  0  0  0  0  0  0  0  0  0  0
   22.1750    4.6720   29.0290 H   0  0  0  0  0  0  0  0  0  0  0  0
   25.4430    7.3770   30.2860 H   0  0  0  0  0  0  0  0  0  0  0  0
   25.9770    6.6300   28.6810 H   0  0  0  0  0  0  0  0  0  0  0  0
   24.5040    7.7320   28.7500 H   0  0  0  0  0  0  0  0  0  0  0  0
   26.6510    5.2620   30.5060 H   0  0  0  0  0  0  0  0  0  0  0  0
   22.8600    2.2010   31.6710 H   0  0  0  0  0  0  0  0  0  0  0  0
   24.9100   -0.1620   33.6130 H   0  0  0  0  0  0  0  0  0  0  0  0
   23.4750    0.9840   33.5900 H   0  0  0  0  0  0  0  0  0  0  0  0
   23.9970    0.1160   32.0440 H   0  0  0  0  0  0  0  0  0  0  0  0
  1  2  1  0  0  0  0
  1 30  1  0  0  0  0
  1 31  1  0  0  0  0
  1 32  1  0  0  0  0
  2  3  1  0  0  0  0
  2 33  1  0  0  0  0
  2 34  1  0  0  0  0
  3  4  1  0  0  0  0
  4 10  2  0  0  0  0
  4  5  1  0  0  0  0
  5  6  2  0  0  0  0
  6  7  1  0  0  0  0
  6 13  1  0  0  0  0
  7  8  2  0  0  0  0
  7 35  1  0  0  0  0
  8  9  1  0  0  0  0
  8 10  1  0  0  0  0
  9 36  1  0  0  0  0
  9 37  1  0  0  0  0
 10 11  1  0  0  0  0
 11 12  3  0  0  0  0
 13 14  1  0  0  0  0
 13 38  1  0  0  0  0
 14 15  2  0  0  0  0
 14 16  1  0  0  0  0
 16 17  1  0  0  0  0
 16 39  1  0  0  0  0
 16 40  1  0  0  0  0
 17 27  2  0  0  0  0
 17 18  1  0  0  0  0
 18 19  1  0  0  0  0
 18 21  2  0  0  0  0
 19 20  1  0  0  0  0
 20 41  1  0  0  0  0
 20 42  1  0  0  0  0
 20 43  1  0  0  0  0
 21 22  1  0  0  0  0
 21 44  1  0  0  0  0
 22 23  1  0  0  0  0
 22 26  2  0  0  0  0
 23 24  1  0  0  0  0
 23 25  2  0  0  0  0
 26 27  1  0  0  0  0
 26 28  1  0  0  0  0
 27 45  1  0  0  0  0
 28 29  1  0  0  0  0
 29 46  1  0  0  0  0
 29 47  1  0  0  0  0
 29 48  1  0  0  0  0
M  CHG  2  23   1  24  -1
M  END
$$$$
