p38a_2m
 OpenBabel02232411163D
Structure written by MMmdl.
 50 54  0  0  0  0  0  0  0  0999 V2000
   38.3180   36.5760   17.1220 C   0  0  0  0  0  0  0  0  0  0  0  0
   34.5800   35.0470   21.1720 C   0  0  0  0  0  0  0  0  0  0  0  0
   37.5420   36.1030   18.1760 C   0  0  0  0  0  0  0  0  0  0  0  0
   33.9200   39.1080   23.7230 C   0  0  0  0  0  0  0  0  0  0  0  0
   34.6580   37.9280   21.3420 C   0  0  0  0  0  0  0  0  0  0  0  0
   35.0830   37.2810   20.1310 C   0  0  0  0  0  0  0  0  0  0  0  0
   37.6680   36.7310   15.8900 C   0  0  0  0  0  0  0  0  0  0  0  0
   36.3240   36.4140   15.6820 C   0  0  0  0  0  0  0  0  0  0  0  0
   35.5690   35.9240   16.7540 C   0  0  0  0  0  0  0  0  0  0  0  0
   34.2860   37.1460   22.4750 C   0  0  0  0  0  0  0  0  0  0  0  0
   34.6070   39.3400   21.4920 C   0  0  0  0  0  0  0  0  0  0  0  0
   35.0710   35.9300   20.0780 C   0  0  0  0  0  0  0  0  0  0  0  0
   36.1850   35.7600   17.9970 C   0  0  0  0  0  0  0  0  0  0  0  0
   38.0750   35.9740   19.3840 F   0  0  0  0  0  0  0  0  0  0  0  0
   35.4750   35.1170   19.0200 O   0  0  0  0  0  0  0  0  0  0  0  0
   34.2600   39.9430   22.6400 N   0  0  0  0  0  0  0  0  0  0  0  0
   34.4220   33.8500   21.0890 O   0  0  0  0  0  0  0  0  0  0  0  0
   34.2740   35.7390   22.3980 N   0  0  0  0  0  0  0  0  0  0  0  0
   33.9230   37.7280   23.6600 N   0  0  0  0  0  0  0  0  0  0  0  0
   33.4940   39.7090   24.8880 N   0  0  0  0  0  0  0  0  0  0  0  0
   39.3680   36.8490   17.2590 H   0  0  0  0  0  0  0  0  0  0  0  0
   35.4070   37.9070   19.2970 H   0  0  0  0  0  0  0  0  0  0  0  0
   35.8510   36.5580   14.7090 H   0  0  0  0  0  0  0  0  0  0  0  0
   34.5090   35.6910   16.6120 H   0  0  0  0  0  0  0  0  0  0  0  0
   34.8590   39.9930   20.6400 H   0  0  0  0  0  0  0  0  0  0  0  0
   33.6150   40.7340   25.0050 H   0  0  0  0  0  0  0  0  0  0  0  0
   38.3580   37.2460   14.8750 F   0  0  0  0  0  0  0  0  0  0  0  0
   32.0990   38.9210   28.3530 C   0  0  0  0  0  0  0  0  0  0  0  0
   32.2200   39.6200   26.9930 C   0  0  0  0  0  0  0  0  0  0  0  0
   33.3220   38.9370   26.1560 C   0  0  0  0  0  0  0  0  0  0  0  0
   34.6490   38.8900   26.9470 C   0  0  0  0  0  0  0  0  0  0  0  0
   34.4150   38.2380   28.3150 C   0  0  0  0  0  0  0  0  0  0  0  0
   33.3640   38.9040   29.0540 O   0  0  0  0  0  0  0  0  0  0  0  0
   31.7360   37.8740   28.2320 H   0  0  0  0  0  0  0  0  0  0  0  0
   31.4500   39.4980   29.0500 H   0  0  0  0  0  0  0  0  0  0  0  0
   32.4710   40.6970   27.1450 H   0  0  0  0  0  0  0  0  0  0  0  0
   31.2460   39.5580   26.4510 H   0  0  0  0  0  0  0  0  0  0  0  0
   32.9980   37.8870   25.9080 H   0  0  0  0  0  0  0  0  0  0  0  0
   35.4030   38.2890   26.3840 H   0  0  0  0  0  0  0  0  0  0  0  0
   35.0490   39.9230   27.0800 H   0  0  0  0  0  0  0  0  0  0  0  0
   34.1490   37.1610   28.2010 H   0  0  0  0  0  0  0  0  0  0  0  0
   35.2960   38.3720   28.9840 H   0  0  0  0  0  0  0  0  0  0  0  0
   33.8920   34.9670   23.6000 C   0  0  0  0  0  0  0  0  0  0  0  0
   34.7440   35.0680   24.8630 C   0  0  0  0  0  0  0  0  0  0  0  0
   34.7360   33.7850   24.0590 C   0  0  0  0  0  0  0  0  0  0  0  0
   32.7920   34.9170   23.7130 H   0  0  0  0  0  0  0  0  0  0  0  0
   35.6430   35.6940   24.8740 H   0  0  0  0  0  0  0  0  0  0  0  0
   34.2170   35.1040   25.8290 H   0  0  0  0  0  0  0  0  0  0  0  0
   35.6430   33.4930   23.5220 H   0  0  0  0  0  0  0  0  0  0  0  0
   34.2000   32.9140   24.4690 H   0  0  0  0  0  0  0  0  0  0  0  0
  1  3  2  0  0  0  0
  1  7  1  0  0  0  0
  1 21  1  0  0  0  0
  2 12  1  0  0  0  0
  2 17  2  0  0  0  0
  2 18  1  0  0  0  0
  3 13  1  0  0  0  0
  3 14  1  0  0  0  0
  4 16  2  0  0  0  0
  4 19  1  0  0  0  0
  4 20  1  0  0  0  0
  5  6  1  0  0  0  0
  5 10  1  0  0  0  0
  5 11  2  0  0  0  0
  6 12  2  0  0  0  0
  6 22  1  0  0  0  0
  7  8  2  0  0  0  0
  7 27  1  0  0  0  0
  8  9  1  0  0  0  0
  8 23  1  0  0  0  0
  9 13  2  0  0  0  0
  9 24  1  0  0  0  0
 10 18  1  0  0  0  0
 10 19  2  0  0  0  0
 11 16  1  0  0  0  0
 11 25  1  0  0  0  0
 12 15  1  0  0  0  0
 13 15  1  0  0  0  0
 18 43  1  0  0  0  0
 20 26  1  0  0  0  0
 20 30  1  0  0  0  0
 28 29  1  0  0  0  0
 28 33  1  0  0  0  0
 28 34  1  0  0  0  0
 28 35  1  0  0  0  0
 29 30  1  0  0  0  0
 29 36  1  0  0  0  0
 29 37  1  0  0  0  0
 30 31  1  0  0  0  0
 30 38  1  0  0  0  0
 31 32  1  0  0  0  0
 31 39  1  0  0  0  0
 31 40  1  0  0  0  0
 32 33  1  0  0  0  0
 32 41  1  0  0  0  0
 32 42  1  0  0  0  0
 43 44  1  0  0  0  0
 43 45  1  0  0  0  0
 43 46  1  0  0  0  0
 44 45  1  0  0  0  0
 44 47  1  0  0  0  0
 44 48  1  0  0  0  0
 45 49  1  0  0  0  0
 45 50  1  0  0  0  0
M  END
$$$$
