p38a_2ff
 OpenBabel02232411163D
Structure written by MMmdl.
 49 52  0  0  1  0  0  0  0  0999 V2000
   36.3390   35.9350   15.9950 C   0  0  0  0  0  0  0  0  0  0  0  0
   34.3680   35.0060   21.4850 C   0  0  0  0  0  0  0  0  0  0  0  0
   35.6520   35.4980   17.1230 C   0  0  0  0  0  0  0  0  0  0  0  0
   33.6360   39.1310   23.9090 C   0  0  0  0  0  0  0  0  0  0  0  0
   34.6550   37.8610   21.6730 C   0  0  0  0  0  0  0  0  0  0  0  0
   35.1750   37.1780   20.5200 C   0  0  0  0  0  0  0  0  0  0  0  0
   37.6340   36.4280   16.2040 C   0  0  0  0  0  0  0  0  0  0  0  0
   38.2530   36.4580   17.4570 C   0  0  0  0  0  0  0  0  0  0  0  0
   37.5310   36.0390   18.5800 C   0  0  0  0  0  0  0  0  0  0  0  0
   34.0320   37.1340   22.7280 C   0  0  0  0  0  0  0  0  0  0  0  0
   34.7410   39.2710   21.8330 C   0  0  0  0  0  0  0  0  0  0  0  0
   35.0510   35.8330   20.4520 C   0  0  0  0  0  0  0  0  0  0  0  0
   36.2290   35.5600   18.4090 C   0  0  0  0  0  0  0  0  0  0  0  0
   33.2820   34.9910   23.7630 C   0  0  0  0  0  0  0  0  0  0  0  0
   34.4330   34.9880   17.0120 F   0  0  0  0  0  0  0  0  0  0  0  0
   35.4740   34.9790   19.4350 O   0  0  0  0  0  0  0  0  0  0  0  0
   34.2700   39.9110   22.9090 N   0  0  0  0  0  0  0  0  0  0  0  0
   34.1750   33.8120   21.4090 O   0  0  0  0  0  0  0  0  0  0  0  0
   33.9140   35.7360   22.6390 N   0  0  0  0  0  0  0  0  0  0  0  0
   33.5330   37.7590   23.8470 N   0  0  0  0  0  0  0  0  0  0  0  0
   33.0550   39.8650   24.9160 N   0  0  0  0  0  0  0  0  0  0  0  0
   35.8880   35.9200   14.9990 H   0  0  0  0  0  0  0  0  0  0  0  0
   35.6560   37.7750   19.7400 H   0  0  0  0  0  0  0  0  0  0  0  0
   39.2770   36.8270   17.5620 H   0  0  0  0  0  0  0  0  0  0  0  0
   37.9820   36.1070   19.5730 H   0  0  0  0  0  0  0  0  0  0  0  0
   35.2110   39.8840   21.0450 H   0  0  0  0  0  0  0  0  0  0  0  0
   33.8520   35.1800   24.7140 H   0  0  0  0  0  0  0  0  0  0  0  0
   32.2240   35.3380   23.9100 H   0  0  0  0  0  0  0  0  0  0  0  0
   33.2840   33.8900   23.5510 H   0  0  0  0  0  0  0  0  0  0  0  0
   33.3630   40.8620   25.0000 H   0  0  0  0  0  0  0  0  0  0  0  0
   38.2920   36.9240   15.1580 F   0  0  0  0  0  0  0  0  0  0  0  0
   32.5100   39.3030   28.6710 C   0  0  0  0  0  0  0  0  0  0  0  0
   33.3130   39.4780   27.3750 C   0  0  0  0  0  0  0  0  0  0  0  0
   32.3580   39.4170   26.1590 C   0  0  2  0  0  0  0  0  0  0  0  0
   31.6810   38.0420   26.0940 C   0  0  0  0  0  0  0  0  0  0  0  0
   30.8590   37.8170   27.3690 C   0  0  0  0  0  0  0  0  0  0  0  0
   31.6750   38.0080   28.6580 C   0  0  2  0  0  0  0  0  0  0  0  0
   31.8430   40.1820   28.8130 H   0  0  0  0  0  0  0  0  0  0  0  0
   33.2200   39.2730   29.5340 H   0  0  0  0  0  0  0  0  0  0  0  0
   34.0860   38.6780   27.2940 H   0  0  0  0  0  0  0  0  0  0  0  0
   33.8350   40.4660   27.4030 H   0  0  0  0  0  0  0  0  0  0  0  0
   31.5570   40.2060   26.2940 H   0  0  0  0  0  0  0  0  0  0  0  0
   31.0030   37.9880   25.2090 H   0  0  0  0  0  0  0  0  0  0  0  0
   32.4450   37.2310   26.0040 H   0  0  0  0  0  0  0  0  0  0  0  0
   30.0080   38.5290   27.3950 H   0  0  0  0  0  0  0  0  0  0  0  0
   30.4410   36.7820   27.3470 H   0  0  0  0  0  0  0  0  0  0  0  0
   32.3160   37.1200   28.8700 H   0  0  0  0  0  0  0  0  0  0  0  0
   30.7710   38.0230   29.7840 O   0  0  0  0  0  0  0  0  0  0  0  0
   29.9980   38.6270   29.5990 H   0  0  0  0  0  0  0  0  0  0  0  0
  1  3  2  0  0  0  0
  1  7  1  0  0  0  0
  1 22  1  0  0  0  0
  2 12  1  0  0  0  0
  2 18  2  0  0  0  0
  2 19  1  0  0  0  0
  3 13  1  0  0  0  0
  3 15  1  0  0  0  0
  4 17  2  0  0  0  0
  4 20  1  0  0  0  0
  4 21  1  0  0  0  0
  5  6  1  0  0  0  0
  5 10  1  0  0  0  0
  5 11  2  0  0  0  0
  6 12  2  0  0  0  0
  6 23  1  0  0  0  0
  7  8  2  0  0  0  0
  7 31  1  0  0  0  0
  8  9  1  0  0  0  0
  8 24  1  0  0  0  0
  9 13  2  0  0  0  0
  9 25  1  0  0  0  0
 10 19  1  0  0  0  0
 10 20  2  0  0  0  0
 11 17  1  0  0  0  0
 11 26  1  0  0  0  0
 12 16  1  0  0  0  0
 13 16  1  0  0  0  0
 14 19  1  0  0  0  0
 14 27  1  0  0  0  0
 14 28  1  0  0  0  0
 14 29  1  0  0  0  0
 21 30  1  0  0  0  0
 21 34  1  0  0  0  0
 32 33  1  0  0  0  0
 32 37  1  0  0  0  0
 32 38  1  0  0  0  0
 32 39  1  0  0  0  0
 33 34  1  0  0  0  0
 33 40  1  0  0  0  0
 33 41  1  0  0  0  0
 34 35  1  0  0  0  0
 34 42  1  6  0  0  0
 35 36  1  0  0  0  0
 35 43  1  0  0  0  0
 35 44  1  0  0  0  0
 36 37  1  0  0  0  0
 36 45  1  0  0  0  0
 36 46  1  0  0  0  0
 37 47  1  1  0  0  0
 37 48  1  0  0  0  0
 48 49  1  0  0  0  0
M  END
$$$$
