p38a_2x
 OpenBabel02232411163D
Structure written by MMmdl.
 43 46  0  0  1  0  0  0  0  0999 V2000
   38.2880   36.5420   17.1520 C   0  0  0  0  0  0  0  0  0  0  0  0
   34.4850   35.0920   21.1970 C   0  0  0  0  0  0  0  0  0  0  0  0
   37.5090   36.0790   18.2090 C   0  0  0  0  0  0  0  0  0  0  0  0
   33.8630   39.1920   23.6860 C   0  0  0  0  0  0  0  0  0  0  0  0
   34.6210   37.9660   21.3370 C   0  0  0  0  0  0  0  0  0  0  0  0
   35.0580   37.2970   20.1430 C   0  0  0  0  0  0  0  0  0  0  0  0
   37.6380   36.6990   15.9210 C   0  0  0  0  0  0  0  0  0  0  0  0
   36.2910   36.3920   15.7160 C   0  0  0  0  0  0  0  0  0  0  0  0
   35.5330   35.9140   16.7900 C   0  0  0  0  0  0  0  0  0  0  0  0
   34.1590   37.2120   22.4560 C   0  0  0  0  0  0  0  0  0  0  0  0
   34.6350   39.3800   21.4770 C   0  0  0  0  0  0  0  0  0  0  0  0
   35.0200   35.9460   20.1030 C   0  0  0  0  0  0  0  0  0  0  0  0
   36.1490   35.7470   18.0330 C   0  0  0  0  0  0  0  0  0  0  0  0
   33.5620   35.0490   23.5450 C   0  0  0  0  0  0  0  0  0  0  0  0
   38.0420   35.9470   19.4160 F   0  0  0  0  0  0  0  0  0  0  0  0
   35.4360   35.1170   19.0630 O   0  0  0  0  0  0  0  0  0  0  0  0
   34.2790   40.0020   22.6090 N   0  0  0  0  0  0  0  0  0  0  0  0
   34.3720   33.8860   21.1570 O   0  0  0  0  0  0  0  0  0  0  0  0
   34.0830   35.8120   22.3760 N   0  0  0  0  0  0  0  0  0  0  0  0
   33.7810   37.8190   23.6310 N   0  0  0  0  0  0  0  0  0  0  0  0
   33.5790   39.8640   24.8590 N   0  0  0  0  0  0  0  0  0  0  0  0
   39.3410   36.8070   17.2860 H   0  0  0  0  0  0  0  0  0  0  0  0
   35.4160   37.9080   19.3120 H   0  0  0  0  0  0  0  0  0  0  0  0
   35.8180   36.5360   14.7420 H   0  0  0  0  0  0  0  0  0  0  0  0
   34.4700   35.6910   16.6500 H   0  0  0  0  0  0  0  0  0  0  0  0
   34.9370   40.0130   20.6260 H   0  0  0  0  0  0  0  0  0  0  0  0
   34.2070   35.2390   24.4450 H   0  0  0  0  0  0  0  0  0  0  0  0
   32.5150   35.3830   23.7780 H   0  0  0  0  0  0  0  0  0  0  0  0
   33.5560   33.9510   23.3210 H   0  0  0  0  0  0  0  0  0  0  0  0
   33.6450   40.9040   24.8520 H   0  0  0  0  0  0  0  0  0  0  0  0
   38.3320   37.2050   14.9040 F   0  0  0  0  0  0  0  0  0  0  0  0
   32.5380   37.4560   27.4500 O   0  0  0  0  0  0  0  0  0  0  0  0
   31.3470   37.4650   26.6090 C   0  0  0  0  0  0  0  0  0  0  0  0
   31.4550   38.6540   25.6420 C   0  0  0  0  0  0  0  0  0  0  0  0
   32.7920   39.3430   26.0030 C   0  0  1  0  0  0  0  0  0  0  0  0
   33.5570   38.2860   26.8430 C   0  0  0  0  0  0  0  0  0  0  0  0
   30.5040   37.5690   27.3270 H   0  0  0  0  0  0  0  0  0  0  0  0
   31.3190   36.4910   26.0740 H   0  0  0  0  0  0  0  0  0  0  0  0
   31.4470   38.2950   24.5870 H   0  0  0  0  0  0  0  0  0  0  0  0
   30.6060   39.3590   25.7650 H   0  0  0  0  0  0  0  0  0  0  0  0
   32.5840   40.2500   26.6430 H   0  0  0  0  0  0  0  0  0  0  0  0
   34.1060   38.7360   27.6980 H   0  0  0  0  0  0  0  0  0  0  0  0
   34.2070   37.6350   26.2190 H   0  0  0  0  0  0  0  0  0  0  0  0
  1  3  2  0  0  0  0
  1  7  1  0  0  0  0
  1 22  1  0  0  0  0
  2 12  1  0  0  0  0
  2 18  2  0  0  0  0
  2 19  1  0  0  0  0
  3 13  1  0  0  0  0
  3 15  1  0  0  0  0
  4 17  2  0  0  0  0
  4 20  1  0  0  0  0
  4 21  1  0  0  0  0
  5  6  1  0  0  0  0
  5 10  1  0  0  0  0
  5 11  2  0  0  0  0
  6 12  2  0  0  0  0
  6 23  1  0  0  0  0
  7  8  2  0  0  0  0
  7 31  1  0  0  0  0
  8  9  1  0  0  0  0
  8 24  1  0  0  0  0
  9 13  2  0  0  0  0
  9 25  1  0  0  0  0
 10 19  1  0  0  0  0
 10 20  2  0  0  0  0
 11 17  1  0  0  0  0
 11 26  1  0  0  0  0
 12 16  1  0  0  0  0
 13 16  1  0  0  0  0
 14 19  1  0  0  0  0
 14 27  1  0  0  0  0
 14 28  1  0  0  0  0
 14 29  1  0  0  0  0
 21 30  1  0  0  0  0
 21 35  1  0  0  0  0
 32 33  1  0  0  0  0
 32 36  1  0  0  0  0
 33 34  1  0  0  0  0
 33 37  1  0  0  0  0
 33 38  1  0  0  0  0
 34 35  1  0  0  0  0
 34 39  1  0  0  0  0
 34 40  1  0  0  0  0
 35 36  1  0  0  0  0
 35 41  1  1  0  0  0
 36 42  1  0  0  0  0
 36 43  1  0  0  0  0
M  END
$$$$
