p38a_3flw
 OpenBabel02232411163D
Structure written by MMmdl.
 49 51  0  0  0  0  0  0  0  0999 V2000
   38.3230   36.5800   17.1090 C   0  0  0  0  0  0  0  0  0  0  0  0
   37.6700   36.7390   15.8800 C   0  0  0  0  0  0  0  0  0  0  0  0
   32.6410   39.9180   27.1450 C   0  0  0  0  0  0  0  0  0  0  0  0
   31.9870   39.3510   28.4090 C   0  0  0  0  0  0  0  0  0  0  0  0
   31.2610   38.3630   25.6260 C   0  0  0  0  0  0  0  0  0  0  0  0
   33.4820   34.9240   23.4210 C   0  0  0  0  0  0  0  0  0  0  0  0
   38.0830   35.9750   19.3720 F   0  0  0  0  0  0  0  0  0  0  0  0
   37.5490   36.1060   18.1650 C   0  0  0  0  0  0  0  0  0  0  0  0
   38.3570   37.2540   14.8640 F   0  0  0  0  0  0  0  0  0  0  0  0
   36.3240   36.4260   15.6750 C   0  0  0  0  0  0  0  0  0  0  0  0
   35.5720   35.9330   16.7470 C   0  0  0  0  0  0  0  0  0  0  0  0
   36.1920   35.7620   17.9880 C   0  0  0  0  0  0  0  0  0  0  0  0
   35.4930   35.1070   19.0100 O   0  0  0  0  0  0  0  0  0  0  0  0
   35.0410   35.9150   20.0520 C   0  0  0  0  0  0  0  0  0  0  0  0
   35.0580   37.2660   20.1200 C   0  0  0  0  0  0  0  0  0  0  0  0
   34.5690   37.9040   21.3110 C   0  0  0  0  0  0  0  0  0  0  0  0
   34.5480   39.3150   21.4820 C   0  0  0  0  0  0  0  0  0  0  0  0
   34.1220   39.9100   22.6060 N   0  0  0  0  0  0  0  0  0  0  0  0
   34.4920   35.0280   21.1120 C   0  0  0  0  0  0  0  0  0  0  0  0
   34.4080   33.8210   21.0440 O   0  0  0  0  0  0  0  0  0  0  0  0
   34.0440   35.7160   22.2910 N   0  0  0  0  0  0  0  0  0  0  0  0
   34.0820   37.1170   22.3970 C   0  0  0  0  0  0  0  0  0  0  0  0
   33.6430   37.6890   23.5640 N   0  0  0  0  0  0  0  0  0  0  0  0
   33.6670   39.0690   23.6450 C   0  0  0  0  0  0  0  0  0  0  0  0
   33.2280   39.6780   24.7930 N   0  0  0  0  0  0  0  0  0  0  0  0
   32.6600   38.9260   25.9640 C   0  0  0  0  0  0  0  0  0  0  0  0
   31.0730   36.9340   26.1530 C   0  0  0  0  0  0  0  0  0  0  0  0
   30.8400   36.9450   27.5760 O   0  0  0  0  0  0  0  0  0  0  0  0
   32.2050   40.2350   29.5240 O   0  0  0  0  0  0  0  0  0  0  0  0
   39.3730   36.8530   17.2440 H   0  0  0  0  0  0  0  0  0  0  0  0
   32.0820   40.8330   26.8410 H   0  0  0  0  0  0  0  0  0  0  0  0
   33.6930   40.2240   27.3770 H   0  0  0  0  0  0  0  0  0  0  0  0
   30.8860   39.2370   28.2710 H   0  0  0  0  0  0  0  0  0  0  0  0
   32.4580   38.3960   28.7310 H   0  0  0  0  0  0  0  0  0  0  0  0
   30.4720   39.0210   26.0580 H   0  0  0  0  0  0  0  0  0  0  0  0
   31.1150   38.3450   24.5190 H   0  0  0  0  0  0  0  0  0  0  0  0
   32.3940   35.1680   23.5500 H   0  0  0  0  0  0  0  0  0  0  0  0
   33.5930   33.8270   23.2200 H   0  0  0  0  0  0  0  0  0  0  0  0
   34.0200   35.1770   24.3750 H   0  0  0  0  0  0  0  0  0  0  0  0
   35.8470   36.5750   14.7040 H   0  0  0  0  0  0  0  0  0  0  0  0
   34.5100   35.7040   16.6090 H   0  0  0  0  0  0  0  0  0  0  0  0
   35.4330   37.8990   19.3130 H   0  0  0  0  0  0  0  0  0  0  0  0
   34.8860   39.9730   20.6630 H   0  0  0  0  0  0  0  0  0  0  0  0
   33.2680   40.7110   24.8730 H   0  0  0  0  0  0  0  0  0  0  0  0
   33.3640   38.0800   26.2020 H   0  0  0  0  0  0  0  0  0  0  0  0
   30.2120   36.4400   25.6480 H   0  0  0  0  0  0  0  0  0  0  0  0
   32.0030   36.3280   26.0470 H   0  0  0  0  0  0  0  0  0  0  0  0
   29.8350   36.9330   27.7350 H   0  0  0  0  0  0  0  0  0  0  0  0
   32.0480   41.1800   29.2240 H   0  0  0  0  0  0  0  0  0  0  0  0
  1  2  2  0  0  0  0
  1  8  1  0  0  0  0
  1 30  1  0  0  0  0
  2  9  1  0  0  0  0
  2 10  1  0  0  0  0
  3  4  1  0  0  0  0
  3 26  1  0  0  0  0
  3 31  1  0  0  0  0
  3 32  1  0  0  0  0
  4 29  1  0  0  0  0
  4 33  1  0  0  0  0
  4 34  1  0  0  0  0
  5 26  1  0  0  0  0
  5 27  1  0  0  0  0
  5 35  1  0  0  0  0
  5 36  1  0  0  0  0
  6 21  1  0  0  0  0
  6 37  1  0  0  0  0
  6 38  1  0  0  0  0
  6 39  1  0  0  0  0
  7  8  1  0  0  0  0
  8 12  2  0  0  0  0
 10 11  2  0  0  0  0
 10 40  1  0  0  0  0
 11 12  1  0  0  0  0
 11 41  1  0  0  0  0
 12 13  1  0  0  0  0
 13 14  1  0  0  0  0
 14 15  2  0  0  0  0
 14 19  1  0  0  0  0
 15 16  1  0  0  0  0
 15 42  1  0  0  0  0
 16 17  2  0  0  0  0
 16 22  1  0  0  0  0
 17 18  1  0  0  0  0
 17 43  1  0  0  0  0
 18 24  2  0  0  0  0
 19 20  2  0  0  0  0
 19 21  1  0  0  0  0
 21 22  1  0  0  0  0
 22 23  2  0  0  0  0
 23 24  1  0  0  0  0
 24 25  1  0  0  0  0
 25 26  1  0  0  0  0
 25 44  1  0  0  0  0
 26 45  1  0  0  0  0
 27 28  1  0  0  0  0
 27 46  1  0  0  0  0
 27 47  1  0  0  0  0
 28 48  1  0  0  0  0
 29 49  1  0  0  0  0
M  END
$$$$
