18639-1
 OpenBabel02232411163D
Structure written by MMmdl.
 48 49  0  0  0  0  0  0  0  0999 V2000
   23.1770   10.7960   29.0600 C   0  0  0  0  0  0  0  0  0  0  0  0
   23.4620   11.0500   30.5260 C   0  0  0  0  0  0  0  0  0  0  0  0
   22.2020   11.1570   31.2920 O   0  0  0  0  0  0  0  0  0  0  0  0
   21.5460   10.0280   31.6400 C   0  0  0  0  0  0  0  0  0  0  0  0
   22.0150    8.8300   31.2190 N   0  0  0  0  0  0  0  0  0  0  0  0
   21.2710    7.7050   31.5330 C   0  0  0  0  0  0  0  0  0  0  0  0
   20.1060    7.7580   32.2890 C   0  0  0  0  0  0  0  0  0  0  0  0
   19.6350    9.0170   32.7510 C   0  0  0  0  0  0  0  0  0  0  0  0
   18.4810    9.0720   33.4900 N   0  0  0  0  0  0  0  0  0  0  0  0
   20.3640   10.2040   32.4190 C   0  0  0  0  0  0  0  0  0  0  0  0
   19.9680   11.5090   32.7810 C   0  0  0  0  0  0  0  0  0  0  0  0
   19.6940   12.6060   33.0380 N   0  0  0  0  0  0  0  0  0  0  0  0
   21.8450    6.5370   30.9780 N   0  0  0  0  0  0  0  0  0  0  0  0
   21.2420    5.2670   30.8820 C   0  0  0  0  0  0  0  0  0  0  0  0
   20.1490    5.0190   31.3450 O   0  0  0  0  0  0  0  0  0  0  0  0
   22.0630    4.2690   30.0740 C   0  0  0  0  0  0  0  0  0  0  0  0
   23.4290    3.9940   30.6320 C   0  0  0  0  0  0  0  0  0  0  0  0
   24.5280    4.8530   30.3150 C   0  0  0  0  0  0  0  0  0  0  0  0
   24.1750    5.9000   29.4730 O   0  0  0  0  0  0  0  0  0  0  0  0
   25.1320    6.9830   29.3080 C   0  0  0  0  0  0  0  0  0  0  0  0
   25.8060    4.6090   30.7930 C   0  0  0  0  0  0  0  0  0  0  0  0
   26.0310    3.4940   31.6280 C   0  0  0  0  0  0  0  0  0  0  0  0
   27.3810    3.2370   32.1370 N   0  3  0  0  0  0  0  0  0  0  0  0
   27.5100    2.4490   33.0610 O   0  5  0  0  0  0  0  0  0  0  0  0
   28.3250    3.8160   31.6110 O   0  0  0  0  0  0  0  0  0  0  0  0
   24.9570    2.6310   31.9470 C   0  0  0  0  0  0  0  0  0  0  0  0
   23.6640    2.8880   31.4330 C   0  0  0  0  0  0  0  0  0  0  0  0
   25.2990    1.5930   32.7610 O   0  0  0  0  0  0  0  0  0  0  0  0
   24.2980    0.5590   32.9980 C   0  0  0  0  0  0  0  0  0  0  0  0
   24.1350   10.8530   28.4850 H   0  0  0  0  0  0  0  0  0  0  0  0
   22.4780   11.5560   28.6450 H   0  0  0  0  0  0  0  0  0  0  0  0
   22.7380    9.7830   28.9040 H   0  0  0  0  0  0  0  0  0  0  0  0
   23.8690   12.0740   30.7060 H   0  0  0  0  0  0  0  0  0  0  0  0
   24.1030   10.2560   30.9730 H   0  0  0  0  0  0  0  0  0  0  0  0
   19.5380    6.8530   32.5160 H   0  0  0  0  0  0  0  0  0  0  0  0
   17.9760    8.2050   33.7550 H   0  0  0  0  0  0  0  0  0  0  0  0
   18.0870    9.9620   33.7960 H   0  0  0  0  0  0  0  0  0  0  0  0
   22.7670    6.6830   30.4950 H   0  0  0  0  0  0  0  0  0  0  0  0
   21.4870    3.3070   30.0090 H   0  0  0  0  0  0  0  0  0  0  0  0
   22.1750    4.6870   29.0340 H   0  0  0  0  0  0  0  0  0  0  0  0
   25.4520    7.3780   30.2970 H   0  0  0  0  0  0  0  0  0  0  0  0
   25.9860    6.6240   28.6950 H   0  0  0  0  0  0  0  0  0  0  0  0
   24.5190    7.7330   28.7570 H   0  0  0  0  0  0  0  0  0  0  0  0
   26.6480    5.2580   30.5260 H   0  0  0  0  0  0  0  0  0  0  0  0
   22.8450    2.2030   31.6670 H   0  0  0  0  0  0  0  0  0  0  0  0
   24.8800   -0.1750   33.6040 H   0  0  0  0  0  0  0  0  0  0  0  0
   23.4490    0.9750   33.5810 H   0  0  0  0  0  0  0  0  0  0  0  0
   23.9750    0.1120   32.0320 H   0  0  0  0  0  0  0  0  0  0  0  0
  1  2  1  0  0  0  0
  1 30  1  0  0  0  0
  1 31  1  0  0  0  0
  1 32  1  0  0  0  0
  2  3  1  0  0  0  0
  2 33  1  0  0  0  0
  2 34  1  0  0  0  0
  3  4  1  0  0  0  0
  4 10  2  0  0  0  0
  4  5  1  0  0  0  0
  5  6  2  0  0  0  0
  6  7  1  0  0  0  0
  6 13  1  0  0  0  0
  7  8  2  0  0  0  0
  7 35  1  0  0  0  0
  8  9  1  0  0  0  0
  8 10  1  0  0  0  0
  9 36  1  0  0  0  0
  9 37  1  0  0  0  0
 10 11  1  0  0  0  0
 11 12  3  0  0  0  0
 13 14  1  0  0  0  0
 13 38  1  0  0  0  0
 14 15  2  0  0  0  0
 14 16  1  0  0  0  0
 16 17  1  0  0  0  0
 16 39  1  0  0  0  0
 16 40  1  0  0  0  0
 17 27  2  0  0  0  0
 17 18  1  0  0  0  0
 18 19  1  0  0  0  0
 18 21  2  0  0  0  0
 19 20  1  0  0  0  0
 20 41  1  0  0  0  0
 20 42  1  0  0  0  0
 20 43  1  0  0  0  0
 21 22  1  0  0  0  0
 21 44  1  0  0  0  0
 22 23  1  0  0  0  0
 22 26  2  0  0  0  0
 23 24  1  0  0  0  0
 23 25  2  0  0  0  0
 26 27  1  0  0  0  0
 26 28  1  0  0  0  0
 27 45  1  0  0  0  0
 28 29  1  0  0  0  0
 29 46  1  0  0  0  0
 29 47  1  0  0  0  0
 29 48  1  0  0  0  0
M  CHG  2  23   1  24  -1
M  END
$$$$
