p38a_3flq
 OpenBabel02232411163D
Structure written by MMmdl.
 47 49  0  0  1  0  0  0  0  0999 V2000
   34.1020   39.0390   23.8260 C   0  0  0  0  0  0  0  0  0  0  0  0
   34.6440   37.9210   21.3610 C   0  0  0  0  0  0  0  0  0  0  0  0
   35.0220   37.3000   20.1190 C   0  0  0  0  0  0  0  0  0  0  0  0
   34.2880   37.1130   22.4810 C   0  0  0  0  0  0  0  0  0  0  0  0
   35.0020   35.9500   20.0370 C   0  0  0  0  0  0  0  0  0  0  0  0
   33.8600   38.7700   26.3140 C   0  0  1  0  0  0  0  0  0  0  0  0
   35.2580   38.1970   26.5610 C   0  0  0  0  0  0  0  0  0  0  0  0
   31.1630   38.3410   28.3770 C   0  0  0  0  0  0  0  0  0  0  0  0
   34.2150   35.7170   22.3550 N   0  0  0  0  0  0  0  0  0  0  0  0
   33.4140   39.6580   27.4920 C   0  0  0  0  0  0  0  0  0  0  0  0
   38.3740   37.2510   14.8770 F   0  0  0  0  0  0  0  0  0  0  0  0
   37.6580   36.7440   15.8770 C   0  0  0  0  0  0  0  0  0  0  0  0
   36.3100   36.4590   15.6460 C   0  0  0  0  0  0  0  0  0  0  0  0
   35.5270   35.9800   16.7010 C   0  0  0  0  0  0  0  0  0  0  0  0
   38.2860   36.5640   17.1170 C   0  0  0  0  0  0  0  0  0  0  0  0
   37.4820   36.1000   18.1560 C   0  0  0  0  0  0  0  0  0  0  0  0
   37.9940   35.9440   19.3700 F   0  0  0  0  0  0  0  0  0  0  0  0
   36.1200   35.7930   17.9530 C   0  0  0  0  0  0  0  0  0  0  0  0
   35.3760   35.1560   18.9550 O   0  0  0  0  0  0  0  0  0  0  0  0
   34.5290   35.0480   21.1220 C   0  0  0  0  0  0  0  0  0  0  0  0
   34.4010   33.8470   21.0320 O   0  0  0  0  0  0  0  0  0  0  0  0
   34.6360   39.3270   21.5600 C   0  0  0  0  0  0  0  0  0  0  0  0
   34.3840   39.8980   22.7500 N   0  0  0  0  0  0  0  0  0  0  0  0
   34.0210   37.6650   23.7080 N   0  0  0  0  0  0  0  0  0  0  0  0
   33.8010   34.9080   23.5360 C   0  0  0  0  0  0  0  0  0  0  0  0
   33.8340   39.6060   25.0590 N   0  0  0  0  0  0  0  0  0  0  0  0
   32.7760   38.7630   28.8710 S   0  0  0  0  0  0  0  0  0  0  0  0
   33.5740   37.5500   29.1610 O   0  0  0  0  0  0  0  0  0  0  0  0
   32.7450   39.6400   30.0650 O   0  0  0  0  0  0  0  0  0  0  0  0
   35.3290   37.9440   19.2930 H   0  0  0  0  0  0  0  0  0  0  0  0
   33.1170   37.9380   26.1510 H   0  0  0  0  0  0  0  0  0  0  0  0
   35.5570   37.5210   25.7280 H   0  0  0  0  0  0  0  0  0  0  0  0
   36.0070   39.0120   26.6570 H   0  0  0  0  0  0  0  0  0  0  0  0
   35.2420   37.5930   27.5010 H   0  0  0  0  0  0  0  0  0  0  0  0
   30.3790   38.7290   29.0780 H   0  0  0  0  0  0  0  0  0  0  0  0
   30.9000   38.7110   27.3520 H   0  0  0  0  0  0  0  0  0  0  0  0
   31.0160   37.2260   28.3320 H   0  0  0  0  0  0  0  0  0  0  0  0
   34.2830   40.2990   27.8120 H   0  0  0  0  0  0  0  0  0  0  0  0
   32.6410   40.3910   27.1270 H   0  0  0  0  0  0  0  0  0  0  0  0
   35.8560   36.6210   14.6670 H   0  0  0  0  0  0  0  0  0  0  0  0
   34.4650   35.7700   16.5420 H   0  0  0  0  0  0  0  0  0  0  0  0
   39.3400   36.8130   17.2710 H   0  0  0  0  0  0  0  0  0  0  0  0
   34.8470   40.0050   20.7160 H   0  0  0  0  0  0  0  0  0  0  0  0
   33.8630   33.8150   23.3000 H   0  0  0  0  0  0  0  0  0  0  0  0
   34.4680   35.1380   24.4120 H   0  0  0  0  0  0  0  0  0  0  0  0
   32.7450   35.1660   23.8240 H   0  0  0  0  0  0  0  0  0  0  0  0
   33.9700   40.6270   25.1820 H   0  0  0  0  0  0  0  0  0  0  0  0
  1 23  2  0  0  0  0
  1 24  1  0  0  0  0
  1 26  1  0  0  0  0
  2  3  1  0  0  0  0
  2  4  1  0  0  0  0
  2 22  2  0  0  0  0
  3  5  2  0  0  0  0
  3 30  1  0  0  0  0
  4  9  1  0  0  0  0
  4 24  2  0  0  0  0
  5 19  1  0  0  0  0
  5 20  1  0  0  0  0
  6  7  1  0  0  0  0
  6 10  1  0  0  0  0
  6 26  1  0  0  0  0
  6 31  1  6  0  0  0
  7 32  1  0  0  0  0
  7 33  1  0  0  0  0
  7 34  1  0  0  0  0
  8 27  1  0  0  0  0
  8 35  1  0  0  0  0
  8 36  1  0  0  0  0
  8 37  1  0  0  0  0
  9 20  1  0  0  0  0
  9 25  1  0  0  0  0
 10 27  1  0  0  0  0
 10 38  1  0  0  0  0
 10 39  1  0  0  0  0
 11 12  1  0  0  0  0
 12 13  2  0  0  0  0
 12 15  1  0  0  0  0
 13 14  1  0  0  0  0
 13 40  1  0  0  0  0
 14 18  2  0  0  0  0
 14 41  1  0  0  0  0
 15 16  2  0  0  0  0
 15 42  1  0  0  0  0
 16 17  1  0  0  0  0
 16 18  1  0  0  0  0
 18 19  1  0  0  0  0
 20 21  2  0  0  0  0
 22 23  1  0  0  0  0
 22 43  1  0  0  0  0
 25 44  1  0  0  0  0
 25 45  1  0  0  0  0
 25 46  1  0  0  0  0
 26 47  1  0  0  0  0
 27 28  2  0  0  0  0
 27 29  2  0  0  0  0
M  END
$$$$
