23486
 OpenBabel02232411173D
Structure written by MMmdl.
 60 63  0  0  0  0  0  0  0  0999 V2000
   42.3340   18.0550   12.6550 O   0  0  0  0  0  0  0  0  0  0  0  0
   41.1920   17.7380   13.0060 C   0  0  0  0  0  0  0  0  0  0  0  0
   40.1330   18.3430   12.7330 O   0  5  0  0  0  0  0  0  0  0  0  0
   41.0120   16.4550   13.8700 C   0  0  0  0  0  0  0  0  0  0  0  0
   42.3540   15.8790   13.7870 O   0  0  0  0  0  0  0  0  0  0  0  0
   42.6060   14.9300   14.7290 C   0  0  0  0  0  0  0  0  0  0  0  0
   42.0250   13.6040   14.6390 C   0  0  0  0  0  0  0  0  0  0  0  0
   40.9660   13.2820   13.3350 Cl  0  0  0  0  0  0  0  0  0  0  0  0
   42.4310   12.7260   15.6100 C   0  0  0  0  0  0  0  0  0  0  0  0
   42.0280   11.3680   15.9030 C   0  0  0  0  0  0  0  0  0  0  0  0
   42.7130   10.5680   16.8560 C   0  0  0  0  0  0  0  0  0  0  0  0
   42.2570    9.2900   17.1530 C   0  0  0  0  0  0  0  0  0  0  0  0
   41.1360    8.7320   16.5170 C   0  0  0  0  0  0  0  0  0  0  0  0
   40.4710    9.4980   15.5500 C   0  0  0  0  0  0  0  0  0  0  0  0
   39.3980    9.0110   14.7610 N   0  0  0  0  0  0  0  0  0  0  0  0
   38.5390    7.8850   15.1840 C   0  0  0  0  0  0  0  0  0  0  0  0
   37.0630    8.1220   14.7730 C   0  0  0  0  0  0  0  0  0  0  0  0
   36.8340    8.0250   13.2550 C   0  0  0  0  0  0  0  0  0  0  0  0
   37.3780    6.7760   12.6570 N   0  0  0  0  0  0  0  0  0  0  0  0
   36.3560    5.5110   12.1930 S   0  0  0  0  0  0  0  0  0  0  0  0
   36.9610    4.8900   11.0130 O   0  0  0  0  0  0  0  0  0  0  0  0
   35.0810    6.1660   11.8530 O   0  0  0  0  0  0  0  0  0  0  0  0
   36.2530    4.2840   13.4440 C   0  0  0  0  0  0  0  0  0  0  0  0
   35.1270    4.4090   14.4150 C   0  0  0  0  0  0  0  0  0  0  0  0
   35.3380    5.0100   15.6660 C   0  0  0  0  0  0  0  0  0  0  0  0
   34.3120    5.0590   16.6130 C   0  0  0  0  0  0  0  0  0  0  0  0
   33.0670    4.4910   16.3290 C   0  0  0  0  0  0  0  0  0  0  0  0
   32.8590    3.8650   15.0960 C   0  0  0  0  0  0  0  0  0  0  0  0
   33.8750    3.8330   14.1360 C   0  0  0  0  0  0  0  0  0  0  0  0
   38.7900    6.5020   13.0390 C   0  0  0  0  0  0  0  0  0  0  0  0
   39.0360    6.5590   14.5530 C   0  0  0  0  0  0  0  0  0  0  0  0
   40.9100   10.8140   15.2700 C   0  0  0  0  0  0  0  0  0  0  0  0
   43.6070   13.5600   16.6160 S   0  0  0  0  0  0  0  0  0  0  0  0
   43.5090   15.0770   15.7460 C   0  0  0  0  0  0  0  0  0  0  0  0
   44.3340   16.2930   16.1820 C   0  0  0  0  0  0  0  0  0  0  0  0
   44.9520   16.1540   17.2610 O   0  0  0  0  0  0  0  0  0  0  0  0
   44.3640   17.2830   15.4490 O   0  5  0  0  0  0  0  0  0  0  0  0
   40.2780   15.7570   13.4200 H   0  0  0  0  0  0  0  0  0  0  0  0
   40.7380   16.6840   14.9190 H   0  0  0  0  0  0  0  0  0  0  0  0
   43.6030   10.9330   17.3710 H   0  0  0  0  0  0  0  0  0  0  0  0
   42.7730    8.6820   17.9010 H   0  0  0  0  0  0  0  0  0  0  0  0
   40.8200    7.7220   16.7600 H   0  0  0  0  0  0  0  0  0  0  0  0
   38.9450    9.6790   14.1250 H   0  0  0  0  0  0  0  0  0  0  0  0
   38.5750    7.7560   16.3010 H   0  0  0  0  0  0  0  0  0  0  0  0
   36.4460    7.3570   15.2970 H   0  0  0  0  0  0  0  0  0  0  0  0
   36.7280    9.1260   15.1220 H   0  0  0  0  0  0  0  0  0  0  0  0
   35.7360    8.0920   13.0460 H   0  0  0  0  0  0  0  0  0  0  0  0
   37.3680    8.8820   12.7530 H   0  0  0  0  0  0  0  0  0  0  0  0
   36.1980    3.2600   12.9650 H   0  0  0  0  0  0  0  0  0  0  0  0
   37.2260    4.2510   14.0240 H   0  0  0  0  0  0  0  0  0  0  0  0
   36.3240    5.4080   15.9300 H   0  0  0  0  0  0  0  0  0  0  0  0
   34.5000    5.5140   17.5910 H   0  0  0  0  0  0  0  0  0  0  0  0
   32.2710    4.5090   17.0770 H   0  0  0  0  0  0  0  0  0  0  0  0
   31.9020    3.3800   14.8890 H   0  0  0  0  0  0  0  0  0  0  0  0
   33.6930    3.3300   13.1820 H   0  0  0  0  0  0  0  0  0  0  0  0
   39.1140    5.5040   12.6550 H   0  0  0  0  0  0  0  0  0  0  0  0
   39.4230    7.3040   12.5640 H   0  0  0  0  0  0  0  0  0  0  0  0
   40.1360    6.4580   14.7330 H   0  0  0  0  0  0  0  0  0  0  0  0
   38.5350    5.7130   15.0730 H   0  0  0  0  0  0  0  0  0  0  0  0
   40.3370   11.3690   14.5350 H   0  0  0  0  0  0  0  0  0  0  0  0
  1  2  2  0  0  0  0
  2  3  1  0  0  0  0
  2  4  1  0  0  0  0
  4  5  1  0  0  0  0
  4 38  1  0  0  0  0
  4 39  1  0  0  0  0
  5  6  1  0  0  0  0
  6 34  2  0  0  0  0
  6  7  1  0  0  0  0
  7  8  1  0  0  0  0
  7  9  2  0  0  0  0
  9 10  1  0  0  0  0
  9 33  1  0  0  0  0
 10 32  2  0  0  0  0
 10 11  1  0  0  0  0
 11 12  2  0  0  0  0
 11 40  1  0  0  0  0
 12 13  1  0  0  0  0
 12 41  1  0  0  0  0
 13 14  2  0  0  0  0
 13 42  1  0  0  0  0
 14 15  1  0  0  0  0
 14 32  1  0  0  0  0
 15 16  1  0  0  0  0
 15 43  1  0  0  0  0
 16 31  1  0  0  0  0
 16 17  1  0  0  0  0
 16 44  1  0  0  0  0
 17 18  1  0  0  0  0
 17 45  1  0  0  0  0
 17 46  1  0  0  0  0
 18 19  1  0  0  0  0
 18 47  1  0  0  0  0
 18 48  1  0  0  0  0
 19 20  1  0  0  0  0
 19 30  1  0  0  0  0
 20 21  2  0  0  0  0
 20 22  2  0  0  0  0
 20 23  1  0  0  0  0
 23 24  1  0  0  0  0
 23 49  1  0  0  0  0
 23 50  1  0  0  0  0
 24 29  2  0  0  0  0
 24 25  1  0  0  0  0
 25 26  2  0  0  0  0
 25 51  1  0  0  0  0
 26 27  1  0  0  0  0
 26 52  1  0  0  0  0
 27 28  2  0  0  0  0
 27 53  1  0  0  0  0
 28 29  1  0  0  0  0
 28 54  1  0  0  0  0
 29 55  1  0  0  0  0
 30 31  1  0  0  0  0
 30 56  1  0  0  0  0
 30 57  1  0  0  0  0
 31 58  1  0  0  0  0
 31 59  1  0  0  0  0
 32 60  1  0  0  0  0
 33 34  1  0  0  0  0
 34 35  1  0  0  0  0
 35 36  2  0  0  0  0
 35 37  1  0  0  0  0
M  CHG  2   3  -1  37  -1
M  END
$$$$
