p38a_2u
 OpenBabel02232411163D
Structure written by MMmdl.
 64 68  0  0  0  0  0  0  0  0999 V2000
   38.2760   36.5220   17.2000 C   0  0  0  0  0  0  0  0  0  0  0  0
   34.5850   35.0840   21.3480 C   0  0  0  0  0  0  0  0  0  0  0  0
   37.5150   36.0760   18.2780 C   0  0  0  0  0  0  0  0  0  0  0  0
   34.0560   39.1910   23.8490 C   0  0  0  0  0  0  0  0  0  0  0  0
   34.7000   37.9560   21.4730 C   0  0  0  0  0  0  0  0  0  0  0  0
   35.0950   37.2910   20.2630 C   0  0  0  0  0  0  0  0  0  0  0  0
   37.6080   36.6490   15.9750 C   0  0  0  0  0  0  0  0  0  0  0  0
   36.2600   36.3270   15.7960 C   0  0  0  0  0  0  0  0  0  0  0  0
   35.5210   35.8700   16.8920 C   0  0  0  0  0  0  0  0  0  0  0  0
   34.3280   37.1940   22.6210 C   0  0  0  0  0  0  0  0  0  0  0  0
   34.6780   39.3720   21.5980 C   0  0  0  0  0  0  0  0  0  0  0  0
   35.0760   35.9400   20.2320 C   0  0  0  0  0  0  0  0  0  0  0  0
   36.1540   35.7350   18.1310 C   0  0  0  0  0  0  0  0  0  0  0  0
   38.0710   35.9700   19.4780 F   0  0  0  0  0  0  0  0  0  0  0  0
   35.4580   35.1130   19.1760 O   0  0  0  0  0  0  0  0  0  0  0  0
   34.3740   40.0030   22.7410 N   0  0  0  0  0  0  0  0  0  0  0  0
   34.4520   33.8800   21.2720 O   0  0  0  0  0  0  0  0  0  0  0  0
   34.2720   35.7840   22.5650 N   0  0  0  0  0  0  0  0  0  0  0  0
   34.0220   37.8090   23.8070 N   0  0  0  0  0  0  0  0  0  0  0  0
   33.7090   39.8210   25.0200 N   0  0  0  0  0  0  0  0  0  0  0  0
   39.3290   36.7950   17.3130 H   0  0  0  0  0  0  0  0  0  0  0  0
   35.4060   37.9020   19.4120 H   0  0  0  0  0  0  0  0  0  0  0  0
   35.7730   36.4420   14.8250 H   0  0  0  0  0  0  0  0  0  0  0  0
   34.4580   35.6360   16.7750 H   0  0  0  0  0  0  0  0  0  0  0  0
   34.9160   39.9990   20.7230 H   0  0  0  0  0  0  0  0  0  0  0  0
   33.8270   40.8480   25.1080 H   0  0  0  0  0  0  0  0  0  0  0  0
   38.2850   37.1390   14.9390 F   0  0  0  0  0  0  0  0  0  0  0  0
   32.3540   39.2350   28.5450 C   0  0  0  0  0  0  0  0  0  0  0  0
   32.5350   39.9180   27.1830 C   0  0  0  0  0  0  0  0  0  0  0  0
   33.4680   39.0720   26.2920 C   0  0  0  0  0  0  0  0  0  0  0  0
   34.7980   38.7880   27.0220 C   0  0  0  0  0  0  0  0  0  0  0  0
   34.5120   38.1570   28.3900 C   0  0  0  0  0  0  0  0  0  0  0  0
   33.6230   38.9750   29.1850 O   0  0  0  0  0  0  0  0  0  0  0  0
   31.7950   38.2770   28.4380 H   0  0  0  0  0  0  0  0  0  0  0  0
   31.8590   39.9210   29.2710 H   0  0  0  0  0  0  0  0  0  0  0  0
   32.9690   40.9350   27.3340 H   0  0  0  0  0  0  0  0  0  0  0  0
   31.5450   40.0340   26.6830 H   0  0  0  0  0  0  0  0  0  0  0  0
   32.9590   38.0980   26.0410 H   0  0  0  0  0  0  0  0  0  0  0  0
   35.4180   38.0820   26.4180 H   0  0  0  0  0  0  0  0  0  0  0  0
   35.3710   39.7370   27.1500 H   0  0  0  0  0  0  0  0  0  0  0  0
   34.0620   37.1440   28.2720 H   0  0  0  0  0  0  0  0  0  0  0  0
   35.4310   38.1290   29.0200 H   0  0  0  0  0  0  0  0  0  0  0  0
   34.2770   33.2170   25.4740 C   0  0  0  0  0  0  0  0  0  0  0  0
   34.7530   33.8980   24.1720 C   0  0  0  0  0  0  0  0  0  0  0  0
   33.7720   35.0150   23.7750 C   0  0  0  0  0  0  0  0  0  0  0  0
   32.3550   34.4670   23.5040 C   0  0  0  0  0  0  0  0  0  0  0  0
   32.1030   33.1230   24.2220 C   0  0  0  0  0  0  0  0  0  0  0  0
   34.5850   33.8520   26.3510 H   0  0  0  0  0  0  0  0  0  0  0  0
   34.7760   32.2160   25.5360 H   0  0  0  0  0  0  0  0  0  0  0  0
   34.8240   33.1380   23.3570 H   0  0  0  0  0  0  0  0  0  0  0  0
   35.7690   34.3220   24.3530 H   0  0  0  0  0  0  0  0  0  0  0  0
   33.7130   35.7360   24.6450 H   0  0  0  0  0  0  0  0  0  0  0  0
   31.6110   35.2210   23.8610 H   0  0  0  0  0  0  0  0  0  0  0  0
   32.1780   34.3020   22.4140 H   0  0  0  0  0  0  0  0  0  0  0  0
   30.9950   33.0190   24.3730 H   0  0  0  0  0  0  0  0  0  0  0  0
   32.4570   32.2780   23.5690 H   0  0  0  0  0  0  0  0  0  0  0  0
   32.7880   33.0760   25.5440 N   0  0  0  0  0  0  0  0  0  0  0  0
   32.0960   32.0960   26.7740 S   0  0  0  0  0  0  0  0  0  0  0  0
   30.9340   32.8100   27.3330 O   0  0  0  0  0  0  0  0  0  0  0  0
   33.1260   31.8360   27.7990 O   0  0  0  0  0  0  0  0  0  0  0  0
   31.5750   30.6190   26.0300 C   0  0  0  0  0  0  0  0  0  0  0  0
   31.2330   29.8630   26.7870 H   0  0  0  0  0  0  0  0  0  0  0  0
   30.7160   30.7550   25.3230 H   0  0  0  0  0  0  0  0  0  0  0  0
   32.3880   30.1210   25.4390 H   0  0  0  0  0  0  0  0  0  0  0  0
  1  3  2  0  0  0  0
  1  7  1  0  0  0  0
  1 21  1  0  0  0  0
  2 12  1  0  0  0  0
  2 17  2  0  0  0  0
  2 18  1  0  0  0  0
  3 13  1  0  0  0  0
  3 14  1  0  0  0  0
  4 16  2  0  0  0  0
  4 19  1  0  0  0  0
  4 20  1  0  0  0  0
  5  6  1  0  0  0  0
  5 10  1  0  0  0  0
  5 11  2  0  0  0  0
  6 12  2  0  0  0  0
  6 22  1  0  0  0  0
  7  8  2  0  0  0  0
  7 27  1  0  0  0  0
  8  9  1  0  0  0  0
  8 23  1  0  0  0  0
  9 13  2  0  0  0  0
  9 24  1  0  0  0  0
 10 18  1  0  0  0  0
 10 19  2  0  0  0  0
 11 16  1  0  0  0  0
 11 25  1  0  0  0  0
 12 15  1  0  0  0  0
 13 15  1  0  0  0  0
 18 45  1  0  0  0  0
 20 26  1  0  0  0  0
 20 30  1  0  0  0  0
 28 29  1  0  0  0  0
 28 33  1  0  0  0  0
 28 34  1  0  0  0  0
 28 35  1  0  0  0  0
 29 30  1  0  0  0  0
 29 36  1  0  0  0  0
 29 37  1  0  0  0  0
 30 31  1  0  0  0  0
 30 38  1  0  0  0  0
 31 32  1  0  0  0  0
 31 39  1  0  0  0  0
 31 40  1  0  0  0  0
 32 33  1  0  0  0  0
 32 41  1  0  0  0  0
 32 42  1  0  0  0  0
 43 44  1  0  0  0  0
 43 48  1  0  0  0  0
 43 49  1  0  0  0  0
 43 57  1  0  0  0  0
 44 45  1  0  0  0  0
 44 50  1  0  0  0  0
 44 51  1  0  0  0  0
 45 46  1  0  0  0  0
 45 52  1  0  0  0  0
 46 47  1  0  0  0  0
 46 53  1  0  0  0  0
 46 54  1  0  0  0  0
 47 55  1  0  0  0  0
 47 56  1  0  0  0  0
 47 57  1  0  0  0  0
 57 58  1  0  0  0  0
 58 59  2  0  0  0  0
 58 60  2  0  0  0  0
 58 61  1  0  0  0  0
 61 62  1  0  0  0  0
 61 63  1  0  0  0  0
 61 64  1  0  0  0  0
M  END
$$$$
