p38a_2n
 OpenBabel02232411163D
Structure written by MMmdl.
 53 56  0  0  0  0  0  0  0  0999 V2000
   38.1740   36.4290   17.3060 C   0  0  0  0  0  0  0  0  0  0  0  0
   34.3040   35.1080   21.3380 C   0  0  0  0  0  0  0  0  0  0  0  0
   37.3710   35.9980   18.3590 C   0  0  0  0  0  0  0  0  0  0  0  0
   33.7680   39.2630   23.7620 C   0  0  0  0  0  0  0  0  0  0  0  0
   34.4690   37.9800   21.4220 C   0  0  0  0  0  0  0  0  0  0  0  0
   34.9000   37.2860   20.2400 C   0  0  0  0  0  0  0  0  0  0  0  0
   37.5470   36.5700   16.0610 C   0  0  0  0  0  0  0  0  0  0  0  0
   36.1990   36.2770   15.8410 C   0  0  0  0  0  0  0  0  0  0  0  0
   35.4150   35.8370   16.9140 C   0  0  0  0  0  0  0  0  0  0  0  0
   34.0000   37.2530   22.5560 C   0  0  0  0  0  0  0  0  0  0  0  0
   34.5180   39.3960   21.5380 C   0  0  0  0  0  0  0  0  0  0  0  0
   34.8500   35.9340   20.2260 C   0  0  0  0  0  0  0  0  0  0  0  0
   36.0060   35.6880   18.1720 C   0  0  0  0  0  0  0  0  0  0  0  0
   37.8880   35.8720   19.5730 F   0  0  0  0  0  0  0  0  0  0  0  0
   35.2670   35.0870   19.2000 O   0  0  0  0  0  0  0  0  0  0  0  0
   34.1920   40.0450   22.6630 N   0  0  0  0  0  0  0  0  0  0  0  0
   34.1930   33.9010   21.3250 O   0  0  0  0  0  0  0  0  0  0  0  0
   33.9070   35.8500   22.5060 N   0  0  0  0  0  0  0  0  0  0  0  0
   33.6530   37.8890   23.7250 N   0  0  0  0  0  0  0  0  0  0  0  0
   33.4590   39.9670   24.8990 N   0  0  0  0  0  0  0  0  0  0  0  0
   39.2290   36.6830   17.4480 H   0  0  0  0  0  0  0  0  0  0  0  0
   35.2670   37.8780   19.3990 H   0  0  0  0  0  0  0  0  0  0  0  0
   35.7450   36.4020   14.8550 H   0  0  0  0  0  0  0  0  0  0  0  0
   34.3510   35.6300   16.7620 H   0  0  0  0  0  0  0  0  0  0  0  0
   34.8330   40.0070   20.6760 H   0  0  0  0  0  0  0  0  0  0  0  0
   33.6120   40.9950   24.9060 H   0  0  0  0  0  0  0  0  0  0  0  0
   38.2660   37.0450   15.0470 F   0  0  0  0  0  0  0  0  0  0  0  0
   33.4660   38.0610   28.2470 C   0  0  0  0  0  0  0  0  0  0  0  0
   34.0140   38.5240   26.8910 C   0  0  0  0  0  0  0  0  0  0  0  0
   32.9750   39.4330   26.2060 C   0  0  0  0  0  0  0  0  0  0  0  0
   31.6240   38.7020   26.0850 C   0  0  0  0  0  0  0  0  0  0  0  0
   31.1780   38.2300   27.4750 C   0  0  0  0  0  0  0  0  0  0  0  0
   32.1820   37.4100   28.1160 O   0  0  0  0  0  0  0  0  0  0  0  0
   33.3650   38.9200   28.9510 H   0  0  0  0  0  0  0  0  0  0  0  0
   34.0970   37.2520   28.6810 H   0  0  0  0  0  0  0  0  0  0  0  0
   34.2280   37.6340   26.2500 H   0  0  0  0  0  0  0  0  0  0  0  0
   34.9680   39.0830   27.0460 H   0  0  0  0  0  0  0  0  0  0  0  0
   32.8300   40.3600   26.8400 H   0  0  0  0  0  0  0  0  0  0  0  0
   30.8560   39.3850   25.6530 H   0  0  0  0  0  0  0  0  0  0  0  0
   31.7300   37.8180   25.4100 H   0  0  0  0  0  0  0  0  0  0  0  0
   30.9460   39.0920   28.1380 H   0  0  0  0  0  0  0  0  0  0  0  0
   30.3160   37.5270   27.4030 H   0  0  0  0  0  0  0  0  0  0  0  0
   33.4000   35.0970   23.7050 C   0  0  0  0  0  0  0  0  0  0  0  0
   33.7960   34.0460   23.6470 H   0  0  0  0  0  0  0  0  0  0  0  0
   33.8260   35.5870   24.6270 H   0  0  0  0  0  0  0  0  0  0  0  0
   31.8680   35.0930   23.8110 C   0  0  0  0  0  0  0  0  0  0  0  0
   31.6060   35.0120   24.9000 H   0  0  0  0  0  0  0  0  0  0  0  0
   31.4500   36.0620   23.4510 H   0  0  0  0  0  0  0  0  0  0  0  0
   31.1950   33.9280   23.0730 C   0  0  0  0  0  0  0  0  0  0  0  0
   30.9410   34.1980   22.0260 H   0  0  0  0  0  0  0  0  0  0  0  0
   31.8060   32.9970   23.1240 H   0  0  0  0  0  0  0  0  0  0  0  0
   29.9890   33.5390   23.7570 O   0  0  0  0  0  0  0  0  0  0  0  0
   29.2670   34.2140   23.5770 H   0  0  0  0  0  0  0  0  0  0  0  0
  1  3  2  0  0  0  0
  1  7  1  0  0  0  0
  1 21  1  0  0  0  0
  2 12  1  0  0  0  0
  2 17  2  0  0  0  0
  2 18  1  0  0  0  0
  3 13  1  0  0  0  0
  3 14  1  0  0  0  0
  4 16  2  0  0  0  0
  4 19  1  0  0  0  0
  4 20  1  0  0  0  0
  5  6  1  0  0  0  0
  5 10  1  0  0  0  0
  5 11  2  0  0  0  0
  6 12  2  0  0  0  0
  6 22  1  0  0  0  0
  7  8  2  0  0  0  0
  7 27  1  0  0  0  0
  8  9  1  0  0  0  0
  8 23  1  0  0  0  0
  9 13  2  0  0  0  0
  9 24  1  0  0  0  0
 10 18  1  0  0  0  0
 10 19  2  0  0  0  0
 11 16  1  0  0  0  0
 11 25  1  0  0  0  0
 12 15  1  0  0  0  0
 13 15  1  0  0  0  0
 18 43  1  0  0  0  0
 20 26  1  0  0  0  0
 20 30  1  0  0  0  0
 28 29  1  0  0  0  0
 28 33  1  0  0  0  0
 28 34  1  0  0  0  0
 28 35  1  0  0  0  0
 29 30  1  0  0  0  0
 29 36  1  0  0  0  0
 29 37  1  0  0  0  0
 30 31  1  0  0  0  0
 30 38  1  0  0  0  0
 31 32  1  0  0  0  0
 31 39  1  0  0  0  0
 31 40  1  0  0  0  0
 32 33  1  0  0  0  0
 32 41  1  0  0  0  0
 32 42  1  0  0  0  0
 43 44  1  0  0  0  0
 43 45  1  0  0  0  0
 43 46  1  0  0  0  0
 46 47  1  0  0  0  0
 46 48  1  0  0  0  0
 46 49  1  0  0  0  0
 49 50  1  0  0  0  0
 49 51  1  0  0  0  0
 49 52  1  0  0  0  0
 52 53  1  0  0  0  0
M  END
$$$$
