18639-1
 OpenBabel02232411163D
Structure written by MMmdl.
 48 49  0  0  0  0  0  0  0  0999 V2000
   23.8330   12.6610   30.3330 C   0  0  0  0  0  0  0  0  0  0  0  0
   23.3810   11.2170   30.4410 C   0  0  0  0  0  0  0  0  0  0  0  0
   22.1320   11.3140   31.2410 O   0  0  0  0  0  0  0  0  0  0  0  0
   21.5060   10.1720   31.5920 C   0  0  0  0  0  0  0  0  0  0  0  0
   21.9970    8.9840   31.1610 N   0  0  0  0  0  0  0  0  0  0  0  0
   21.2760    7.8440   31.4820 C   0  0  0  0  0  0  0  0  0  0  0  0
   20.1170    7.8770   32.2500 C   0  0  0  0  0  0  0  0  0  0  0  0
   19.6200    9.1250   32.7140 C   0  0  0  0  0  0  0  0  0  0  0  0
   18.4750    9.1590   33.4670 N   0  0  0  0  0  0  0  0  0  0  0  0
   20.3200   10.3260   32.3700 C   0  0  0  0  0  0  0  0  0  0  0  0
   19.8920   11.6240   32.7170 C   0  0  0  0  0  0  0  0  0  0  0  0
   19.5880   12.7170   32.9600 N   0  0  0  0  0  0  0  0  0  0  0  0
   21.8560    6.6780   30.9290 N   0  0  0  0  0  0  0  0  0  0  0  0
   21.2590    5.4010   30.8560 C   0  0  0  0  0  0  0  0  0  0  0  0
   20.1710    5.1540   31.3330 O   0  0  0  0  0  0  0  0  0  0  0  0
   22.0720    4.3910   30.0550 C   0  0  0  0  0  0  0  0  0  0  0  0
   23.4300    4.0950   30.6200 C   0  0  0  0  0  0  0  0  0  0  0  0
   24.5420    4.9380   30.3060 C   0  0  0  0  0  0  0  0  0  0  0  0
   24.2030    5.9890   29.4650 O   0  0  0  0  0  0  0  0  0  0  0  0
   25.1830    7.0490   29.2830 C   0  0  0  0  0  0  0  0  0  0  0  0
   25.8150    4.6740   30.7850 C   0  0  0  0  0  0  0  0  0  0  0  0
   26.0240    3.5520   31.6150 C   0  0  0  0  0  0  0  0  0  0  0  0
   27.3710    3.2720   32.1200 N   0  3  0  0  0  0  0  0  0  0  0  0
   27.4910    2.4660   33.0300 O   0  5  0  0  0  0  0  0  0  0  0  0
   28.3210    3.8500   31.6050 O   0  0  0  0  0  0  0  0  0  0  0  0
   24.9370    2.7040   31.9300 C   0  0  0  0  0  0  0  0  0  0  0  0
   23.6480    2.9830   31.4170 C   0  0  0  0  0  0  0  0  0  0  0  0
   25.2640    1.6580   32.7390 O   0  0  0  0  0  0  0  0  0  0  0  0
   24.2520    0.6330   32.9660 C   0  0  0  0  0  0  0  0  0  0  0  0
   24.7560   12.6990   29.7010 H   0  0  0  0  0  0  0  0  0  0  0  0
   23.0510   13.2890   29.8440 H   0  0  0  0  0  0  0  0  0  0  0  0
   24.0660   13.0900   31.3330 H   0  0  0  0  0  0  0  0  0  0  0  0
   23.1130   10.7780   29.4540 H   0  0  0  0  0  0  0  0  0  0  0  0
   24.1050   10.5810   30.9990 H   0  0  0  0  0  0  0  0  0  0  0  0
   19.5710    6.9610   32.4870 H   0  0  0  0  0  0  0  0  0  0  0  0
   17.9730    8.2840   33.7140 H   0  0  0  0  0  0  0  0  0  0  0  0
   18.0620   10.0420   33.7670 H   0  0  0  0  0  0  0  0  0  0  0  0
   22.7770    6.8190   30.4430 H   0  0  0  0  0  0  0  0  0  0  0  0
   21.4810    3.4380   29.9890 H   0  0  0  0  0  0  0  0  0  0  0  0
   22.1970    4.8030   29.0130 H   0  0  0  0  0  0  0  0  0  0  0  0
   25.5150    7.4460   30.2660 H   0  0  0  0  0  0  0  0  0  0  0  0
   26.0260    6.6650   28.6700 H   0  0  0  0  0  0  0  0  0  0  0  0
   24.5830    7.8050   28.7260 H   0  0  0  0  0  0  0  0  0  0  0  0
   26.6680    5.3120   30.5220 H   0  0  0  0  0  0  0  0  0  0  0  0
   22.8190    2.3090   31.6480 H   0  0  0  0  0  0  0  0  0  0  0  0
   24.8220   -0.1090   33.5730 H   0  0  0  0  0  0  0  0  0  0  0  0
   23.4030    1.0550   33.5440 H   0  0  0  0  0  0  0  0  0  0  0  0
   23.9310    0.1930   31.9960 H   0  0  0  0  0  0  0  0  0  0  0  0
  1  2  1  0  0  0  0
  1 30  1  0  0  0  0
  1 31  1  0  0  0  0
  1 32  1  0  0  0  0
  2  3  1  0  0  0  0
  2 33  1  0  0  0  0
  2 34  1  0  0  0  0
  3  4  1  0  0  0  0
  4 10  2  0  0  0  0
  4  5  1  0  0  0  0
  5  6  2  0  0  0  0
  6  7  1  0  0  0  0
  6 13  1  0  0  0  0
  7  8  2  0  0  0  0
  7 35  1  0  0  0  0
  8  9  1  0  0  0  0
  8 10  1  0  0  0  0
  9 36  1  0  0  0  0
  9 37  1  0  0  0  0
 10 11  1  0  0  0  0
 11 12  3  0  0  0  0
 13 14  1  0  0  0  0
 13 38  1  0  0  0  0
 14 15  2  0  0  0  0
 14 16  1  0  0  0  0
 16 17  1  0  0  0  0
 16 39  1  0  0  0  0
 16 40  1  0  0  0  0
 17 27  2  0  0  0  0
 17 18  1  0  0  0  0
 18 19  1  0  0  0  0
 18 21  2  0  0  0  0
 19 20  1  0  0  0  0
 20 41  1  0  0  0  0
 20 42  1  0  0  0  0
 20 43  1  0  0  0  0
 21 22  1  0  0  0  0
 21 44  1  0  0  0  0
 22 23  1  0  0  0  0
 22 26  2  0  0  0  0
 23 24  1  0  0  0  0
 23 25  2  0  0  0  0
 26 27  1  0  0  0  0
 26 28  1  0  0  0  0
 27 45  1  0  0  0  0
 28 29  1  0  0  0  0
 29 46  1  0  0  0  0
 29 47  1  0  0  0  0
 29 48  1  0  0  0  0
M  CHG  2  23   1  24  -1
M  END
$$$$
