p38a_3flw
 OpenBabel02232411163D
Structure written by MMmdl.
 49 51  0  0  0  0  0  0  0  0999 V2000
   38.3460   36.5940   17.0720 C   0  0  0  0  0  0  0  0  0  0  0  0
   37.6940   36.7560   15.8420 C   0  0  0  0  0  0  0  0  0  0  0  0
   32.5140   39.7640   27.1140 C   0  0  0  0  0  0  0  0  0  0  0  0
   33.8490   40.1830   27.7370 C   0  0  0  0  0  0  0  0  0  0  0  0
   31.3030   38.1480   25.5910 C   0  0  0  0  0  0  0  0  0  0  0  0
   33.5150   34.8520   23.3480 C   0  0  0  0  0  0  0  0  0  0  0  0
   38.1020   35.9800   19.3320 F   0  0  0  0  0  0  0  0  0  0  0  0
   37.5720   36.1100   18.1220 C   0  0  0  0  0  0  0  0  0  0  0  0
   38.3800   37.2820   14.8300 F   0  0  0  0  0  0  0  0  0  0  0  0
   36.3510   36.4360   15.6320 C   0  0  0  0  0  0  0  0  0  0  0  0
   35.6000   35.9300   16.6980 C   0  0  0  0  0  0  0  0  0  0  0  0
   36.2180   35.7570   17.9390 C   0  0  0  0  0  0  0  0  0  0  0  0
   35.5210   35.0930   18.9560 O   0  0  0  0  0  0  0  0  0  0  0  0
   35.0580   35.8960   19.9970 C   0  0  0  0  0  0  0  0  0  0  0  0
   35.0670   37.2460   20.0690 C   0  0  0  0  0  0  0  0  0  0  0  0
   34.5660   37.8780   21.2590 C   0  0  0  0  0  0  0  0  0  0  0  0
   34.5300   39.2890   21.4340 C   0  0  0  0  0  0  0  0  0  0  0  0
   34.0880   39.8790   22.5540 N   0  0  0  0  0  0  0  0  0  0  0  0
   34.5110   35.0010   21.0520 C   0  0  0  0  0  0  0  0  0  0  0  0
   34.4380   33.7930   20.9800 O   0  0  0  0  0  0  0  0  0  0  0  0
   34.0460   35.6820   22.2290 N   0  0  0  0  0  0  0  0  0  0  0  0
   34.0850   37.0830   22.3420 C   0  0  0  0  0  0  0  0  0  0  0  0
   33.6450   37.6520   23.5080 N   0  0  0  0  0  0  0  0  0  0  0  0
   33.6340   39.0330   23.5880 C   0  0  0  0  0  0  0  0  0  0  0  0
   33.1470   39.6200   24.7290 N   0  0  0  0  0  0  0  0  0  0  0  0
   32.6600   38.8240   25.9060 C   0  0  0  0  0  0  0  0  0  0  0  0
   31.0780   36.9100   26.4700 C   0  0  0  0  0  0  0  0  0  0  0  0
   30.7130   37.2950   27.8130 O   0  0  0  0  0  0  0  0  0  0  0  0
   33.6250   40.7910   29.0230 O   0  0  0  0  0  0  0  0  0  0  0  0
   39.3940   36.8720   17.2110 H   0  0  0  0  0  0  0  0  0  0  0  0
   31.8990   39.2240   27.8830 H   0  0  0  0  0  0  0  0  0  0  0  0
   31.9570   40.6780   26.8070 H   0  0  0  0  0  0  0  0  0  0  0  0
   34.4920   39.3050   27.9750 H   0  0  0  0  0  0  0  0  0  0  0  0
   34.3760   40.9180   27.0860 H   0  0  0  0  0  0  0  0  0  0  0  0
   30.4730   38.8760   25.7420 H   0  0  0  0  0  0  0  0  0  0  0  0
   31.2830   37.8170   24.5240 H   0  0  0  0  0  0  0  0  0  0  0  0
   32.9560   35.4870   24.0900 H   0  0  0  0  0  0  0  0  0  0  0  0
   32.8040   34.0840   22.9450 H   0  0  0  0  0  0  0  0  0  0  0  0
   34.3600   34.3450   23.8800 H   0  0  0  0  0  0  0  0  0  0  0  0
   35.8750   36.5900   14.6620 H   0  0  0  0  0  0  0  0  0  0  0  0
   34.5410   35.6920   16.5560 H   0  0  0  0  0  0  0  0  0  0  0  0
   35.4420   37.8830   19.2670 H   0  0  0  0  0  0  0  0  0  0  0  0
   34.8710   39.9520   20.6200 H   0  0  0  0  0  0  0  0  0  0  0  0
   33.1640   40.6510   24.8310 H   0  0  0  0  0  0  0  0  0  0  0  0
   33.4310   38.0320   26.1230 H   0  0  0  0  0  0  0  0  0  0  0  0
   30.2730   36.2720   26.0410 H   0  0  0  0  0  0  0  0  0  0  0  0
   32.0200   36.3280   26.6060 H   0  0  0  0  0  0  0  0  0  0  0  0
   29.7130   37.1550   27.9130 H   0  0  0  0  0  0  0  0  0  0  0  0
   33.0430   41.6050   28.8830 H   0  0  0  0  0  0  0  0  0  0  0  0
  1  2  2  0  0  0  0
  1  8  1  0  0  0  0
  1 30  1  0  0  0  0
  2  9  1  0  0  0  0
  2 10  1  0  0  0  0
  3  4  1  0  0  0  0
  3 26  1  0  0  0  0
  3 31  1  0  0  0  0
  3 32  1  0  0  0  0
  4 29  1  0  0  0  0
  4 33  1  0  0  0  0
  4 34  1  0  0  0  0
  5 26  1  0  0  0  0
  5 27  1  0  0  0  0
  5 35  1  0  0  0  0
  5 36  1  0  0  0  0
  6 21  1  0  0  0  0
  6 37  1  0  0  0  0
  6 38  1  0  0  0  0
  6 39  1  0  0  0  0
  7  8  1  0  0  0  0
  8 12  2  0  0  0  0
 10 11  2  0  0  0  0
 10 40  1  0  0  0  0
 11 12  1  0  0  0  0
 11 41  1  0  0  0  0
 12 13  1  0  0  0  0
 13 14  1  0  0  0  0
 14 15  2  0  0  0  0
 14 19  1  0  0  0  0
 15 16  1  0  0  0  0
 15 42  1  0  0  0  0
 16 17  2  0  0  0  0
 16 22  1  0  0  0  0
 17 18  1  0  0  0  0
 17 43  1  0  0  0  0
 18 24  2  0  0  0  0
 19 20  2  0  0  0  0
 19 21  1  0  0  0  0
 21 22  1  0  0  0  0
 22 23  2  0  0  0  0
 23 24  1  0  0  0  0
 24 25  1  0  0  0  0
 25 26  1  0  0  0  0
 25 44  1  0  0  0  0
 26 45  1  0  0  0  0
 27 28  1  0  0  0  0
 27 46  1  0  0  0  0
 27 47  1  0  0  0  0
 28 48  1  0  0  0  0
 29 49  1  0  0  0  0
M  END
$$$$
