27
 OpenBabel02232411163D
Structure written by MMmdl.
 38 40  0  0  0  0  0  0  0  0999 V2000
    3.3890  -48.2120    7.1040 O   0  0  0  0  0  0  0  0  0  0  0  0
    3.0010  -49.2000    6.4670 C   0  0  0  0  0  0  0  0  0  0  0  0
    3.7160  -50.0410    5.8860 O   0  5  0  0  0  0  0  0  0  0  0  0
    1.4870  -49.4760    6.3800 C   0  0  0  0  0  0  0  0  0  0  0  0
   -0.3840  -50.7890    6.5330 C   0  0  0  0  0  0  0  0  0  0  0  0
   -1.3160  -51.8180    6.7570 C   0  0  0  0  0  0  0  0  0  0  0  0
   -2.6430  -51.5550    6.4520 C   0  0  0  0  0  0  0  0  0  0  0  0
   -3.0430  -50.3010    5.9310 C   0  0  0  0  0  0  0  0  0  0  0  0
   -2.1270  -49.2810    5.7110 C   0  0  0  0  0  0  0  0  0  0  0  0
   -0.7740  -49.5000    6.0170 C   0  0  0  0  0  0  0  0  0  0  0  0
    0.4240  -48.6900    5.9480 C   0  0  0  0  0  0  0  0  0  0  0  0
    0.4330  -47.2740    5.4950 C   0  0  0  0  0  0  0  0  0  0  0  0
    0.3260  -46.2700    6.6580 C   0  0  0  0  0  0  0  0  0  0  0  0
   -1.0050  -46.3250    7.4070 C   0  0  0  0  0  0  0  0  0  0  0  0
   -1.9730  -45.7520    6.4530 O   0  0  0  0  0  0  0  0  0  0  0  0
   -3.2280  -45.4560    6.8980 C   0  0  0  0  0  0  0  0  0  0  0  0
   -3.7810  -45.8790    8.1180 C   0  0  0  0  0  0  0  0  0  0  0  0
   -5.0850  -45.4850    8.4350 C   0  0  0  0  0  0  0  0  0  0  0  0
   -5.8260  -44.6870    7.5620 C   0  0  0  0  0  0  0  0  0  0  0  0
   -5.2660  -44.2840    6.3390 C   0  0  0  0  0  0  0  0  0  0  0  0
   -3.9740  -44.6620    5.9940 C   0  0  0  0  0  0  0  0  0  0  0  0
   -1.0150  -52.7850    7.1590 H   0  0  0  0  0  0  0  0  0  0  0  0
   -3.4010  -52.3210    6.6160 H   0  0  0  0  0  0  0  0  0  0  0  0
   -4.0980  -50.1440    5.7020 H   0  0  0  0  0  0  0  0  0  0  0  0
   -2.4630  -48.3230    5.3100 H   0  0  0  0  0  0  0  0  0  0  0  0
   -0.4440  -47.1070    4.8170 H   0  0  0  0  0  0  0  0  0  0  0  0
    1.3670  -47.0470    4.9270 H   0  0  0  0  0  0  0  0  0  0  0  0
    0.4450  -45.2370    6.2530 H   0  0  0  0  0  0  0  0  0  0  0  0
    1.1380  -46.4740    7.3980 H   0  0  0  0  0  0  0  0  0  0  0  0
   -0.9980  -45.6670    8.3020 H   0  0  0  0  0  0  0  0  0  0  0  0
   -1.3440  -47.3590    7.6260 H   0  0  0  0  0  0  0  0  0  0  0  0
   -3.2370  -46.5150    8.8120 H   0  0  0  0  0  0  0  0  0  0  0  0
   -3.5400  -44.3590    5.0450 H   0  0  0  0  0  0  0  0  0  0  0  0
    1.0030  -50.7480    6.7470 N   0  0  0  0  0  0  0  0  0  0  0  0
    1.5380  -51.5370    7.0900 H   0  0  0  0  0  0  0  0  0  0  0  0
   -5.8550  -43.6710    5.6550 H   0  0  0  0  0  0  0  0  0  0  0  0
   -6.8390  -44.3850    7.8200 H   0  0  0  0  0  0  0  0  0  0  0  0
   -5.5330  -45.8090    9.3780 H   0  0  0  0  0  0  0  0  0  0  0  0
  1  2  2  0  0  0  0
  2  3  1  0  0  0  0
  2  4  1  0  0  0  0
  4 11  2  0  0  0  0
  4 34  1  0  0  0  0
  5  6  2  0  0  0  0
  5 10  1  0  0  0  0
  5 34  1  0  0  0  0
  6  7  1  0  0  0  0
  6 22  1  0  0  0  0
  7  8  2  0  0  0  0
  7 23  1  0  0  0  0
  8  9  1  0  0  0  0
  8 24  1  0  0  0  0
  9 10  2  0  0  0  0
  9 25  1  0  0  0  0
 10 11  1  0  0  0  0
 11 12  1  0  0  0  0
 12 26  1  0  0  0  0
 12 27  1  0  0  0  0
 12 13  1  0  0  0  0
 13 14  1  0  0  0  0
 13 28  1  0  0  0  0
 13 29  1  0  0  0  0
 14 15  1  0  0  0  0
 14 30  1  0  0  0  0
 14 31  1  0  0  0  0
 15 16  1  0  0  0  0
 16 17  2  0  0  0  0
 16 21  1  0  0  0  0
 17 18  1  0  0  0  0
 17 32  1  0  0  0  0
 18 19  2  0  0  0  0
 18 38  1  0  0  0  0
 19 20  1  0  0  0  0
 19 37  1  0  0  0  0
 20 21  2  0  0  0  0
 20 36  1  0  0  0  0
 21 33  1  0  0  0  0
 34 35  1  0  0  0  0
M  CHG  1   3  -1
M  END
$$$$
