43
 OpenBabel02232411163D
Structure written by MMmdl.
 44 47  0  0  0  0  0  0  0  0999 V2000
    3.6800  -48.5940    7.1940 O   0  0  0  0  0  0  0  0  0  0  0  0
    3.2710  -49.5450    6.5150 C   0  0  0  0  0  0  0  0  0  0  0  0
    3.9630  -50.4000    5.9300 O   0  5  0  0  0  0  0  0  0  0  0  0
    1.7480  -49.7330    6.3770 C   0  0  0  0  0  0  0  0  0  0  0  0
   -0.2220  -50.8870    6.5260 C   0  0  0  0  0  0  0  0  0  0  0  0
   -1.2380  -51.8260    6.7740 C   0  0  0  0  0  0  0  0  0  0  0  0
   -2.5310  -51.4770    6.4130 C   0  0  0  0  0  0  0  0  0  0  0  0
   -2.8140  -50.2280    5.8120 C   0  0  0  0  0  0  0  0  0  0  0  0
   -1.8150  -49.2950    5.5670 C   0  0  0  0  0  0  0  0  0  0  0  0
   -0.4930  -49.6030    5.9280 C   0  0  0  0  0  0  0  0  0  0  0  0
    0.7670  -48.8930    5.8620 C   0  0  0  0  0  0  0  0  0  0  0  0
    0.9120  -47.5010    5.3580 C   0  0  0  0  0  0  0  0  0  0  0  0
    0.8990  -46.4600    6.4920 C   0  0  0  0  0  0  0  0  0  0  0  0
   -0.4080  -46.4430    7.2760 C   0  0  0  0  0  0  0  0  0  0  0  0
   -1.3750  -45.8050    6.3570 O   0  0  0  0  0  0  0  0  0  0  0  0
   -2.6370  -45.5990    6.8240 C   0  0  0  0  0  0  0  0  0  0  0  0
   -4.7400  -44.5220    6.2850 C   0  0  0  0  0  0  0  0  0  0  0  0
   -3.4580  -44.8310    5.9260 C   0  0  0  0  0  0  0  0  0  0  0  0
   -1.0260  -52.7900    7.2360 H   0  0  0  0  0  0  0  0  0  0  0  0
   -3.3530  -52.1710    6.5950 H   0  0  0  0  0  0  0  0  0  0  0  0
   -3.8470  -50.0050    5.5420 H   0  0  0  0  0  0  0  0  0  0  0  0
   -2.0610  -48.3390    5.1040 H   0  0  0  0  0  0  0  0  0  0  0  0
    0.0570  -47.2690    4.6730 H   0  0  0  0  0  0  0  0  0  0  0  0
    1.8660  -47.3830    4.7900 H   0  0  0  0  0  0  0  0  0  0  0  0
    1.0510  -45.4470    6.0520 H   0  0  0  0  0  0  0  0  0  0  0  0
    1.7230  -46.6890    7.2110 H   0  0  0  0  0  0  0  0  0  0  0  0
   -0.3500  -45.7950    8.1750 H   0  0  0  0  0  0  0  0  0  0  0  0
   -0.7930  -47.4630    7.4930 H   0  0  0  0  0  0  0  0  0  0  0  0
   -3.0520  -44.4990    4.9770 H   0  0  0  0  0  0  0  0  0  0  0  0
   -3.1240  -46.0510    8.0350 C   0  0  0  0  0  0  0  0  0  0  0  0
   -5.3780  -43.9320    5.6210 H   0  0  0  0  0  0  0  0  0  0  0  0
   -4.4660  -45.7500    8.4010 C   0  0  0  0  0  0  0  0  0  0  0  0
   -5.2840  -44.9820    7.5290 C   0  0  0  0  0  0  0  0  0  0  0  0
   -6.6360  -44.7180    7.8930 C   0  0  0  0  0  0  0  0  0  0  0  0
   -7.1340  -45.1890    9.0820 C   0  0  0  0  0  0  0  0  0  0  0  0
   -6.3050  -45.9210    9.9780 C   0  0  0  0  0  0  0  0  0  0  0  0
   -5.0060  -46.2080    9.6460 C   0  0  0  0  0  0  0  0  0  0  0  0
   -7.2730  -44.1530    7.2100 H   0  0  0  0  0  0  0  0  0  0  0  0
   -8.1710  -45.0330    9.3480 H   0  0  0  0  0  0  0  0  0  0  0  0
   -6.7340  -46.2560   10.9200 H   0  0  0  0  0  0  0  0  0  0  0  0
   -4.3730  -46.7920   10.3150 H   0  0  0  0  0  0  0  0  0  0  0  0
   -2.5310  -46.6450    8.7230 H   0  0  0  0  0  0  0  0  0  0  0  0
    1.1570  -50.9430    6.7880 N   0  0  0  0  0  0  0  0  0  0  0  0
    1.6150  -51.7500    7.1940 H   0  0  0  0  0  0  0  0  0  0  0  0
  1  2  2  0  0  0  0
  2  3  1  0  0  0  0
  2  4  1  0  0  0  0
  4 11  2  0  0  0  0
  4 43  1  0  0  0  0
  5  6  2  0  0  0  0
  5 10  1  0  0  0  0
  5 43  1  0  0  0  0
  6  7  1  0  0  0  0
  6 19  1  0  0  0  0
  7  8  2  0  0  0  0
  7 20  1  0  0  0  0
  8  9  1  0  0  0  0
  8 21  1  0  0  0  0
  9 10  2  0  0  0  0
  9 22  1  0  0  0  0
 10 11  1  0  0  0  0
 11 12  1  0  0  0  0
 12 23  1  0  0  0  0
 12 24  1  0  0  0  0
 12 13  1  0  0  0  0
 13 14  1  0  0  0  0
 13 25  1  0  0  0  0
 13 26  1  0  0  0  0
 14 15  1  0  0  0  0
 14 27  1  0  0  0  0
 14 28  1  0  0  0  0
 15 16  1  0  0  0  0
 16 18  2  0  0  0  0
 16 30  1  0  0  0  0
 17 18  1  0  0  0  0
 17 31  1  0  0  0  0
 17 33  2  0  0  0  0
 18 29  1  0  0  0  0
 30 32  2  0  0  0  0
 30 42  1  0  0  0  0
 32 33  1  0  0  0  0
 32 37  1  0  0  0  0
 33 34  1  0  0  0  0
 34 35  2  0  0  0  0
 34 38  1  0  0  0  0
 35 36  1  0  0  0  0
 35 39  1  0  0  0  0
 36 37  2  0  0  0  0
 36 40  1  0  0  0  0
 37 41  1  0  0  0  0
 43 44  1  0  0  0  0
M  CHG  1   3  -1
M  END
$$$$
