28
 OpenBabel02232411153D
Structure written by MMmdl.
 53 56  0  0  0  0  0  0  0  0999 V2000
    1.9580   28.8430    6.7600 C   0  0  0  0  0  0  0  0  0  0  0  0
   -1.5250   31.4270    7.9350 C   0  0  0  0  0  0  0  0  0  0  0  0
    0.0710   26.0030    8.9890 C   0  0  0  0  0  0  0  0  0  0  0  0
   -0.7820   25.2900   10.0460 C   0  0  0  0  0  0  0  0  0  0  0  0
   -0.6630   23.7680    9.8050 C   0  0  0  0  0  0  0  0  0  0  0  0
   -1.4040   22.9740   10.8900 C   0  0  0  0  0  0  0  0  0  0  0  0
   -0.9230   23.3540   12.3000 C   0  0  0  0  0  0  0  0  0  0  0  0
   -1.0600   24.8650   12.5430 C   0  0  0  0  0  0  0  0  0  0  0  0
   -0.3210   25.6740   11.4660 C   0  0  0  0  0  0  0  0  0  0  0  0
    5.5040   25.7550    5.2710 C   0  0  0  0  0  0  0  0  0  0  0  0
    5.4100   24.8770    6.3610 C   0  0  0  0  0  0  0  0  0  0  0  0
    4.5650   25.2090    7.4320 C   0  0  0  0  0  0  0  0  0  0  0  0
    3.8070   26.3810    7.4180 C   0  0  0  0  0  0  0  0  0  0  0  0
    1.2760   27.8950    7.5120 N   0  0  0  0  0  0  0  0  0  0  0  0
    0.0770   28.2220    8.0680 C   0  0  0  0  0  0  0  0  0  0  0  0
   -0.5840   27.3290    8.8150 O   0  0  0  0  0  0  0  0  0  0  0  0
   -0.4670   29.5200    7.8770 C   0  0  0  0  0  0  0  0  0  0  0  0
   -1.6180   30.1600    8.3500 N   0  0  0  0  0  0  0  0  0  0  0  0
   -0.3170   31.6690    7.1900 N   0  0  0  0  0  0  0  0  0  0  0  0
    0.3530   30.4520    7.1200 C   0  0  0  0  0  0  0  0  0  0  0  0
    1.5470   30.1420    6.5170 N   0  0  0  0  0  0  0  0  0  0  0  0
    3.1650   28.4630    6.1700 N   0  0  0  0  0  0  0  0  0  0  0  0
    3.8790   27.2390    6.3070 C   0  0  0  0  0  0  0  0  0  0  0  0
    4.7580   26.9240    5.2430 C   0  0  0  0  0  0  0  0  0  0  0  0
   -2.2340   32.2270    8.1260 H   0  0  0  0  0  0  0  0  0  0  0  0
    1.1140   26.1680    9.3350 H   0  0  0  0  0  0  0  0  0  0  0  0
    0.0290   25.5080    7.9980 H   0  0  0  0  0  0  0  0  0  0  0  0
   -1.8510   25.5950    9.9300 H   0  0  0  0  0  0  0  0  0  0  0  0
   -1.0950   23.5160    8.8110 H   0  0  0  0  0  0  0  0  0  0  0  0
    0.4160   23.4750    9.8160 H   0  0  0  0  0  0  0  0  0  0  0  0
   -2.4920   23.1880   10.8140 H   0  0  0  0  0  0  0  0  0  0  0  0
   -1.2380   21.8830   10.7320 H   0  0  0  0  0  0  0  0  0  0  0  0
   -1.5280   22.8010   13.0560 H   0  0  0  0  0  0  0  0  0  0  0  0
    0.1450   23.0590   12.4130 H   0  0  0  0  0  0  0  0  0  0  0  0
   -2.1380   25.1440   12.5540 H   0  0  0  0  0  0  0  0  0  0  0  0
   -0.6250   25.1170   13.5380 H   0  0  0  0  0  0  0  0  0  0  0  0
    0.7740   25.4820   11.5710 H   0  0  0  0  0  0  0  0  0  0  0  0
   -0.5040   26.7590   11.6340 H   0  0  0  0  0  0  0  0  0  0  0  0
    6.1620   25.5430    4.4170 H   0  0  0  0  0  0  0  0  0  0  0  0
    4.4830   24.5550    8.3120 H   0  0  0  0  0  0  0  0  0  0  0  0
    3.1640   26.6160    8.2690 H   0  0  0  0  0  0  0  0  0  0  0  0
   -0.0620   32.5530    6.7260 H   0  0  0  0  0  0  0  0  0  0  0  0
    3.6270   29.1550    5.5270 H   0  0  0  0  0  0  0  0  0  0  0  0
    4.8630   27.5990    4.3950 H   0  0  0  0  0  0  0  0  0  0  0  0
    6.3570   23.4470    6.4210 S   0  0  0  0  0  0  0  0  0  0  0  0
    7.3340   23.5880    7.4960 O   0  0  0  0  0  0  0  0  0  0  0  0
    5.5190   22.2370    6.5210 O   0  0  0  0  0  0  0  0  0  0  0  0
    7.1710   23.3160    4.9190 N   0  0  0  0  0  0  0  0  0  0  0  0
    7.0500   22.4410    4.3820 H   0  0  0  0  0  0  0  0  0  0  0  0
    8.5700   23.8100    4.8400 C   0  0  0  0  0  0  0  0  0  0  0  0
    8.9120   23.7430    3.7700 H   0  0  0  0  0  0  0  0  0  0  0  0
    8.6040   24.8920    5.1340 H   0  0  0  0  0  0  0  0  0  0  0  0
    9.2820   23.2290    5.4790 H   0  0  0  0  0  0  0  0  0  0  0  0
  1 14  2  0  0  0  0
  1 21  1  0  0  0  0
  1 22  1  0  0  0  0
  2 18  2  0  0  0  0
  2 19  1  0  0  0  0
  2 25  1  0  0  0  0
  3  4  1  0  0  0  0
  3 16  1  0  0  0  0
  3 26  1  0  0  0  0
  3 27  1  0  0  0  0
  4  5  1  0  0  0  0
  4  9  1  0  0  0  0
  4 28  1  0  0  0  0
  5  6  1  0  0  0  0
  5 29  1  0  0  0  0
  5 30  1  0  0  0  0
  6  7  1  0  0  0  0
  6 31  1  0  0  0  0
  6 32  1  0  0  0  0
  7  8  1  0  0  0  0
  7 33  1  0  0  0  0
  7 34  1  0  0  0  0
  8  9  1  0  0  0  0
  8 35  1  0  0  0  0
  8 36  1  0  0  0  0
  9 37  1  0  0  0  0
  9 38  1  0  0  0  0
 10 11  2  0  0  0  0
 10 24  1  0  0  0  0
 10 39  1  0  0  0  0
 11 12  1  0  0  0  0
 11 45  1  0  0  0  0
 12 13  2  0  0  0  0
 12 40  1  0  0  0  0
 13 23  1  0  0  0  0
 13 41  1  0  0  0  0
 14 15  1  0  0  0  0
 15 16  1  0  0  0  0
 15 17  2  0  0  0  0
 17 18  1  0  0  0  0
 17 20  1  0  0  0  0
 19 20  1  0  0  0  0
 19 42  1  0  0  0  0
 20 21  2  0  0  0  0
 22 23  1  0  0  0  0
 22 43  1  0  0  0  0
 23 24  2  0  0  0  0
 24 44  1  0  0  0  0
 45 46  2  0  0  0  0
 45 47  2  0  0  0  0
 45 48  1  0  0  0  0
 48 49  1  0  0  0  0
 48 50  1  0  0  0  0
 50 51  1  0  0  0  0
 50 52  1  0  0  0  0
 50 53  1  0  0  0  0
M  END
$$$$
