28
 OpenBabel02232411163D
Structure written by MMmdl.
 41 43  0  0  0  0  0  0  0  0999 V2000
    3.7270  -49.9250    5.7370 O   0  0  0  0  0  0  0  0  0  0  0  0
    2.9760  -49.1500    6.3630 C   0  0  0  0  0  0  0  0  0  0  0  0
    3.3240  -48.1730    7.0390 O   0  5  0  0  0  0  0  0  0  0  0  0
    1.4790  -49.5110    6.2860 C   0  0  0  0  0  0  0  0  0  0  0  0
   -0.2830  -50.9800    6.3140 C   0  0  0  0  0  0  0  0  0  0  0  0
   -1.1300  -52.0960    6.4330 C   0  0  0  0  0  0  0  0  0  0  0  0
   -2.4920  -51.8840    6.2800 C   0  0  0  0  0  0  0  0  0  0  0  0
   -3.0100  -50.5970    6.0000 C   0  0  0  0  0  0  0  0  0  0  0  0
   -2.1790  -49.4910    5.8800 C   0  0  0  0  0  0  0  0  0  0  0  0
   -0.7950  -49.6600    6.0470 C   0  0  0  0  0  0  0  0  0  0  0  0
    0.3370  -48.7560    6.0490 C   0  0  0  0  0  0  0  0  0  0  0  0
    0.1690  -47.2830    5.9110 C   0  0  0  0  0  0  0  0  0  0  0  0
   -0.3620  -46.7140    7.2450 C   0  0  0  0  0  0  0  0  0  0  0  0
   -1.0840  -45.3780    7.1210 C   0  0  0  0  0  0  0  0  0  0  0  0
   -2.4150  -45.5320    6.5230 O   0  0  0  0  0  0  0  0  0  0  0  0
   -3.5060  -45.5570    7.3660 C   0  0  0  0  0  0  0  0  0  0  0  0
   -4.6450  -44.8460    6.8970 C   0  0  0  0  0  0  0  0  0  0  0  0
   -5.7950  -44.8520    7.6880 C   0  0  0  0  0  0  0  0  0  0  0  0
   -5.8330  -45.5520    8.9020 C   0  0  0  0  0  0  0  0  0  0  0  0
   -4.7170  -46.2710    9.3270 C   0  0  0  0  0  0  0  0  0  0  0  0
   -3.5410  -46.2710    8.5690 C   0  0  0  0  0  0  0  0  0  0  0  0
   -0.7390  -53.0910    6.6460 H   0  0  0  0  0  0  0  0  0  0  0  0
   -3.1890  -52.7160    6.3820 H   0  0  0  0  0  0  0  0  0  0  0  0
   -4.0880  -50.4810    5.8780 H   0  0  0  0  0  0  0  0  0  0  0  0
   -2.6030  -48.5080    5.6680 H   0  0  0  0  0  0  0  0  0  0  0  0
   -0.5830  -47.0730    5.1080 H   0  0  0  0  0  0  0  0  0  0  0  0
    1.1250  -46.7800    5.6410 H   0  0  0  0  0  0  0  0  0  0  0  0
    0.4940  -46.5740    7.9460 H   0  0  0  0  0  0  0  0  0  0  0  0
   -1.0720  -47.4540    7.6890 H   0  0  0  0  0  0  0  0  0  0  0  0
   -0.6130  -44.7180    6.3610 H   0  0  0  0  0  0  0  0  0  0  0  0
   -1.1870  -44.8670    8.1010 H   0  0  0  0  0  0  0  0  0  0  0  0
   -2.6820  -46.8340    8.9230 H   0  0  0  0  0  0  0  0  0  0  0  0
    1.1090  -50.8640    6.4510 N   0  0  0  0  0  0  0  0  0  0  0  0
    1.7210  -51.6550    6.6130 H   0  0  0  0  0  0  0  0  0  0  0  0
   -4.7630  -46.8440   10.2540 H   0  0  0  0  0  0  0  0  0  0  0  0
   -6.7430  -45.5400    9.5010 H   0  0  0  0  0  0  0  0  0  0  0  0
   -6.6840  -44.3110    7.3590 H   0  0  0  0  0  0  0  0  0  0  0  0
   -4.6200  -44.1310    5.5850 C   0  0  0  0  0  0  0  0  0  0  0  0
   -5.6050  -44.2140    5.0700 H   0  0  0  0  0  0  0  0  0  0  0  0
   -4.3930  -43.0520    5.7420 H   0  0  0  0  0  0  0  0  0  0  0  0
   -3.8350  -44.5670    4.9220 H   0  0  0  0  0  0  0  0  0  0  0  0
  1  2  2  0  0  0  0
  2  3  1  0  0  0  0
  2  4  1  0  0  0  0
  4 11  2  0  0  0  0
  4 33  1  0  0  0  0
  5  6  2  0  0  0  0
  5 10  1  0  0  0  0
  5 33  1  0  0  0  0
  6  7  1  0  0  0  0
  6 22  1  0  0  0  0
  7  8  2  0  0  0  0
  7 23  1  0  0  0  0
  8  9  1  0  0  0  0
  8 24  1  0  0  0  0
  9 10  2  0  0  0  0
  9 25  1  0  0  0  0
 10 11  1  0  0  0  0
 11 12  1  0  0  0  0
 12 26  1  0  0  0  0
 12 27  1  0  0  0  0
 12 13  1  0  0  0  0
 13 14  1  0  0  0  0
 13 28  1  0  0  0  0
 13 29  1  0  0  0  0
 14 15  1  0  0  0  0
 14 30  1  0  0  0  0
 14 31  1  0  0  0  0
 15 16  1  0  0  0  0
 16 17  2  0  0  0  0
 16 21  1  0  0  0  0
 17 18  1  0  0  0  0
 17 38  1  0  0  0  0
 18 19  2  0  0  0  0
 18 37  1  0  0  0  0
 19 20  1  0  0  0  0
 19 36  1  0  0  0  0
 20 21  2  0  0  0  0
 20 35  1  0  0  0  0
 21 32  1  0  0  0  0
 33 34  1  0  0  0  0
 38 39  1  0  0  0  0
 38 40  1  0  0  0  0
 38 41  1  0  0  0  0
M  CHG  1   3  -1
M  END
$$$$
