p38a_2u
 OpenBabel02232411163D
Structure written by MMmdl.
 64 68  0  0  0  0  0  0  0  0999 V2000
   38.2550   36.5010   17.2250 C   0  0  0  0  0  0  0  0  0  0  0  0
   34.5080   35.1490   21.3610 C   0  0  0  0  0  0  0  0  0  0  0  0
   37.4860   36.0690   18.3020 C   0  0  0  0  0  0  0  0  0  0  0  0
   33.9890   39.3000   23.7910 C   0  0  0  0  0  0  0  0  0  0  0  0
   34.6140   38.0300   21.4260 C   0  0  0  0  0  0  0  0  0  0  0  0
   35.0280   37.3400   20.2350 C   0  0  0  0  0  0  0  0  0  0  0  0
   37.5910   36.6310   15.9980 C   0  0  0  0  0  0  0  0  0  0  0  0
   36.2390   36.3260   15.8170 C   0  0  0  0  0  0  0  0  0  0  0  0
   35.4920   35.8840   16.9140 C   0  0  0  0  0  0  0  0  0  0  0  0
   34.2110   37.2890   22.5750 C   0  0  0  0  0  0  0  0  0  0  0  0
   34.6080   39.4470   21.5360 C   0  0  0  0  0  0  0  0  0  0  0  0
   35.0130   35.9880   20.2350 C   0  0  0  0  0  0  0  0  0  0  0  0
   36.1210   35.7450   18.1550 C   0  0  0  0  0  0  0  0  0  0  0  0
   38.0380   35.9590   19.5040 F   0  0  0  0  0  0  0  0  0  0  0  0
   35.4190   35.1400   19.2060 O   0  0  0  0  0  0  0  0  0  0  0  0
   34.3090   40.0940   22.6720 N   0  0  0  0  0  0  0  0  0  0  0  0
   34.4260   33.9400   21.3210 O   0  0  0  0  0  0  0  0  0  0  0  0
   34.0920   35.8830   22.5260 N   0  0  0  0  0  0  0  0  0  0  0  0
   33.9270   37.9210   23.7590 N   0  0  0  0  0  0  0  0  0  0  0  0
   33.6560   39.9450   24.9610 N   0  0  0  0  0  0  0  0  0  0  0  0
   39.3120   36.7620   17.3380 H   0  0  0  0  0  0  0  0  0  0  0  0
   35.3560   37.9340   19.3800 H   0  0  0  0  0  0  0  0  0  0  0  0
   35.7560   36.4440   14.8440 H   0  0  0  0  0  0  0  0  0  0  0  0
   34.4250   35.6660   16.7960 H   0  0  0  0  0  0  0  0  0  0  0  0
   34.8530   40.0620   20.6550 H   0  0  0  0  0  0  0  0  0  0  0  0
   33.8050   40.9690   25.0410 H   0  0  0  0  0  0  0  0  0  0  0  0
   38.2760   37.1070   14.9610 F   0  0  0  0  0  0  0  0  0  0  0  0
   32.4580   39.3320   28.5380 C   0  0  0  0  0  0  0  0  0  0  0  0
   32.5150   39.9700   27.1450 C   0  0  0  0  0  0  0  0  0  0  0  0
   33.5310   39.2160   26.2620 C   0  0  0  0  0  0  0  0  0  0  0  0
   34.9030   39.1360   26.9680 C   0  0  0  0  0  0  0  0  0  0  0  0
   34.7320   38.5380   28.3700 C   0  0  0  0  0  0  0  0  0  0  0  0
   33.7660   39.2780   29.1520 O   0  0  0  0  0  0  0  0  0  0  0  0
   32.0380   38.3000   28.4880 H   0  0  0  0  0  0  0  0  0  0  0  0
   31.8910   39.9730   29.2500 H   0  0  0  0  0  0  0  0  0  0  0  0
   32.8150   41.0400   27.2410 H   0  0  0  0  0  0  0  0  0  0  0  0
   31.5070   39.9290   26.6680 H   0  0  0  0  0  0  0  0  0  0  0  0
   33.1490   38.1760   26.0620 H   0  0  0  0  0  0  0  0  0  0  0  0
   35.5950   38.4880   26.3780 H   0  0  0  0  0  0  0  0  0  0  0  0
   35.3510   40.1550   27.0420 H   0  0  0  0  0  0  0  0  0  0  0  0
   34.4110   37.4720   28.3110 H   0  0  0  0  0  0  0  0  0  0  0  0
   35.6630   38.6510   28.9720 H   0  0  0  0  0  0  0  0  0  0  0  0
   34.0280   33.9120   25.8540 C   0  0  0  0  0  0  0  0  0  0  0  0
   34.6500   34.5030   24.5680 C   0  0  0  0  0  0  0  0  0  0  0  0
   33.5360   35.1710   23.7410 C   0  0  0  0  0  0  0  0  0  0  0  0
   32.4720   34.1240   23.3650 C   0  0  0  0  0  0  0  0  0  0  0  0
   31.8660   33.5450   24.6600 C   0  0  0  0  0  0  0  0  0  0  0  0
   33.6600   34.7580   26.4980 H   0  0  0  0  0  0  0  0  0  0  0  0
   34.8430   33.3690   26.4010 H   0  0  0  0  0  0  0  0  0  0  0  0
   35.1440   33.6900   23.9890 H   0  0  0  0  0  0  0  0  0  0  0  0
   35.4160   35.2580   24.8670 H   0  0  0  0  0  0  0  0  0  0  0  0
   33.0350   35.9540   24.3880 H   0  0  0  0  0  0  0  0  0  0  0  0
   31.6550   34.5920   22.7690 H   0  0  0  0  0  0  0  0  0  0  0  0
   32.9330   33.2960   22.7710 H   0  0  0  0  0  0  0  0  0  0  0  0
   31.3130   34.3640   25.1970 H   0  0  0  0  0  0  0  0  0  0  0  0
   31.1500   32.7300   24.3670 H   0  0  0  0  0  0  0  0  0  0  0  0
   32.9260   32.9480   25.5340 N   0  0  0  0  0  0  0  0  0  0  0  0
   32.3510   31.9570   26.8320 S   0  0  0  0  0  0  0  0  0  0  0  0
   31.3610   31.0250   26.2540 O   0  0  0  0  0  0  0  0  0  0  0  0
   31.7580   32.7760   27.9080 O   0  0  0  0  0  0  0  0  0  0  0  0
   33.7620   31.1180   27.3870 C   0  0  0  0  0  0  0  0  0  0  0  0
   34.4090   31.7560   28.0470 H   0  0  0  0  0  0  0  0  0  0  0  0
   33.4880   30.2200   28.0090 H   0  0  0  0  0  0  0  0  0  0  0  0
   34.3850   30.7390   26.5370 H   0  0  0  0  0  0  0  0  0  0  0  0
  1  3  2  0  0  0  0
  1  7  1  0  0  0  0
  1 21  1  0  0  0  0
  2 12  1  0  0  0  0
  2 17  2  0  0  0  0
  2 18  1  0  0  0  0
  3 13  1  0  0  0  0
  3 14  1  0  0  0  0
  4 16  2  0  0  0  0
  4 19  1  0  0  0  0
  4 20  1  0  0  0  0
  5  6  1  0  0  0  0
  5 10  1  0  0  0  0
  5 11  2  0  0  0  0
  6 12  2  0  0  0  0
  6 22  1  0  0  0  0
  7  8  2  0  0  0  0
  7 27  1  0  0  0  0
  8  9  1  0  0  0  0
  8 23  1  0  0  0  0
  9 13  2  0  0  0  0
  9 24  1  0  0  0  0
 10 18  1  0  0  0  0
 10 19  2  0  0  0  0
 11 16  1  0  0  0  0
 11 25  1  0  0  0  0
 12 15  1  0  0  0  0
 13 15  1  0  0  0  0
 18 45  1  0  0  0  0
 20 26  1  0  0  0  0
 20 30  1  0  0  0  0
 28 29  1  0  0  0  0
 28 33  1  0  0  0  0
 28 34  1  0  0  0  0
 28 35  1  0  0  0  0
 29 30  1  0  0  0  0
 29 36  1  0  0  0  0
 29 37  1  0  0  0  0
 30 31  1  0  0  0  0
 30 38  1  0  0  0  0
 31 32  1  0  0  0  0
 31 39  1  0  0  0  0
 31 40  1  0  0  0  0
 32 33  1  0  0  0  0
 32 41  1  0  0  0  0
 32 42  1  0  0  0  0
 43 44  1  0  0  0  0
 43 48  1  0  0  0  0
 43 49  1  0  0  0  0
 43 57  1  0  0  0  0
 44 45  1  0  0  0  0
 44 50  1  0  0  0  0
 44 51  1  0  0  0  0
 45 46  1  0  0  0  0
 45 52  1  0  0  0  0
 46 47  1  0  0  0  0
 46 53  1  0  0  0  0
 46 54  1  0  0  0  0
 47 55  1  0  0  0  0
 47 56  1  0  0  0  0
 47 57  1  0  0  0  0
 57 58  1  0  0  0  0
 58 59  2  0  0  0  0
 58 60  2  0  0  0  0
 58 61  1  0  0  0  0
 61 62  1  0  0  0  0
 61 63  1  0  0  0  0
 61 64  1  0  0  0  0
M  END
$$$$
