p38a_2m
 OpenBabel02232411163D
Structure written by MMmdl.
 50 54  0  0  0  0  0  0  0  0999 V2000
   36.4120   36.1500   15.6840 C   0  0  0  0  0  0  0  0  0  0  0  0
   34.5870   34.9510   21.0920 C   0  0  0  0  0  0  0  0  0  0  0  0
   35.8220   35.6330   16.8320 C   0  0  0  0  0  0  0  0  0  0  0  0
   33.9010   38.9410   23.7540 C   0  0  0  0  0  0  0  0  0  0  0  0
   34.8150   37.8030   21.4110 C   0  0  0  0  0  0  0  0  0  0  0  0
   35.3800   37.1820   20.2440 C   0  0  0  0  0  0  0  0  0  0  0  0
   37.6990   36.6840   15.8300 C   0  0  0  0  0  0  0  0  0  0  0  0
   38.3950   36.6950   17.0410 C   0  0  0  0  0  0  0  0  0  0  0  0
   37.7650   36.2050   18.1900 C   0  0  0  0  0  0  0  0  0  0  0  0
   34.2320   37.0060   22.4390 C   0  0  0  0  0  0  0  0  0  0  0  0
   34.8390   39.2090   21.6230 C   0  0  0  0  0  0  0  0  0  0  0  0
   35.2990   35.8390   20.1290 C   0  0  0  0  0  0  0  0  0  0  0  0
   36.4780   35.6730   18.0800 C   0  0  0  0  0  0  0  0  0  0  0  0
   34.6210   35.0740   16.7800 F   0  0  0  0  0  0  0  0  0  0  0  0
   35.8270   35.0210   19.1330 O   0  0  0  0  0  0  0  0  0  0  0  0
   34.4060   39.7930   22.7500 N   0  0  0  0  0  0  0  0  0  0  0  0
   34.4090   33.7690   20.9060 O   0  0  0  0  0  0  0  0  0  0  0  0
   34.1040   35.6060   22.2830 N   0  0  0  0  0  0  0  0  0  0  0  0
   33.7790   37.5710   23.6020 N   0  0  0  0  0  0  0  0  0  0  0  0
   33.4920   39.5090   24.9340 N   0  0  0  0  0  0  0  0  0  0  0  0
   35.8930   36.1600   14.7230 H   0  0  0  0  0  0  0  0  0  0  0  0
   35.8670   37.8190   19.5030 H   0  0  0  0  0  0  0  0  0  0  0  0
   39.4050   37.1050   17.1080 H   0  0  0  0  0  0  0  0  0  0  0  0
   38.2760   36.2640   19.1540 H   0  0  0  0  0  0  0  0  0  0  0  0
   35.2280   39.8730   20.8330 H   0  0  0  0  0  0  0  0  0  0  0  0
   33.6030   40.5280   25.0840 H   0  0  0  0  0  0  0  0  0  0  0  0
   38.2670   37.2390   14.7620 F   0  0  0  0  0  0  0  0  0  0  0  0
   33.0490   40.3740   28.0060 C   0  0  0  0  0  0  0  0  0  0  0  0
   32.1470   39.6290   27.0130 C   0  0  0  0  0  0  0  0  0  0  0  0
   32.9230   38.6970   26.0600 C   0  0  0  0  0  0  0  0  0  0  0  0
   34.0100   37.9050   26.8140 C   0  0  0  0  0  0  0  0  0  0  0  0
   34.8360   38.7890   27.7490 C   0  0  0  0  0  0  0  0  0  0  0  0
   33.9820   39.5010   28.6740 O   0  0  0  0  0  0  0  0  0  0  0  0
   32.4560   40.7850   28.8540 H   0  0  0  0  0  0  0  0  0  0  0  0
   33.6240   41.1760   27.4910 H   0  0  0  0  0  0  0  0  0  0  0  0
   31.5730   40.3800   26.4180 H   0  0  0  0  0  0  0  0  0  0  0  0
   31.4120   39.0000   27.5740 H   0  0  0  0  0  0  0  0  0  0  0  0
   32.1930   37.9610   25.6100 H   0  0  0  0  0  0  0  0  0  0  0  0
   33.4940   37.1060   27.4060 H   0  0  0  0  0  0  0  0  0  0  0  0
   34.6900   37.3900   26.0920 H   0  0  0  0  0  0  0  0  0  0  0  0
   35.4670   38.1790   28.4350 H   0  0  0  0  0  0  0  0  0  0  0  0
   35.4430   39.5260   27.1760 H   0  0  0  0  0  0  0  0  0  0  0  0
   33.5070   34.8360   23.3940 C   0  0  0  0  0  0  0  0  0  0  0  0
   34.1510   33.5480   23.8910 C   0  0  0  0  0  0  0  0  0  0  0  0
   32.8080   33.5010   23.1800 C   0  0  0  0  0  0  0  0  0  0  0  0
   33.0640   35.5020   24.1710 H   0  0  0  0  0  0  0  0  0  0  0  0
   35.0370   33.1340   23.4010 H   0  0  0  0  0  0  0  0  0  0  0  0
   34.1760   33.3860   24.9800 H   0  0  0  0  0  0  0  0  0  0  0  0
   32.7400   33.0470   22.1850 H   0  0  0  0  0  0  0  0  0  0  0  0
   31.9040   33.3140   23.7830 H   0  0  0  0  0  0  0  0  0  0  0  0
  1  3  2  0  0  0  0
  1  7  1  0  0  0  0
  1 21  1  0  0  0  0
  2 12  1  0  0  0  0
  2 17  2  0  0  0  0
  2 18  1  0  0  0  0
  3 13  1  0  0  0  0
  3 14  1  0  0  0  0
  4 16  2  0  0  0  0
  4 19  1  0  0  0  0
  4 20  1  0  0  0  0
  5  6  1  0  0  0  0
  5 10  1  0  0  0  0
  5 11  2  0  0  0  0
  6 12  2  0  0  0  0
  6 22  1  0  0  0  0
  7  8  2  0  0  0  0
  7 27  1  0  0  0  0
  8  9  1  0  0  0  0
  8 23  1  0  0  0  0
  9 13  2  0  0  0  0
  9 24  1  0  0  0  0
 10 18  1  0  0  0  0
 10 19  2  0  0  0  0
 11 16  1  0  0  0  0
 11 25  1  0  0  0  0
 12 15  1  0  0  0  0
 13 15  1  0  0  0  0
 18 43  1  0  0  0  0
 20 26  1  0  0  0  0
 20 30  1  0  0  0  0
 28 29  1  0  0  0  0
 28 33  1  0  0  0  0
 28 34  1  0  0  0  0
 28 35  1  0  0  0  0
 29 30  1  0  0  0  0
 29 36  1  0  0  0  0
 29 37  1  0  0  0  0
 30 31  1  0  0  0  0
 30 38  1  0  0  0  0
 31 32  1  0  0  0  0
 31 39  1  0  0  0  0
 31 40  1  0  0  0  0
 32 33  1  0  0  0  0
 32 41  1  0  0  0  0
 32 42  1  0  0  0  0
 43 44  1  0  0  0  0
 43 45  1  0  0  0  0
 43 46  1  0  0  0  0
 44 45  1  0  0  0  0
 44 47  1  0  0  0  0
 44 48  1  0  0  0  0
 45 49  1  0  0  0  0
 45 50  1  0  0  0  0
M  END
$$$$
