1c
                    3D
 Schrodinger Suite 2022-3.
 52 54  0  0  1  0  0  0  0  0999 V2000
   16.1140  -16.0230   23.0320 N   0  3  0  0  0  0  0  0  0  0  0  0
   17.4450  -15.2500   23.1010 C   0  0  1  0  0  0  0  0  0  0  0  0
   17.1930  -13.8240   22.5420 C   0  0  0  0  0  0  0  0  0  0  0  0
   16.2140  -13.1710   22.9000 O   0  0  0  0  0  0  0  0  0  0  0  0
   17.9300  -15.2140   24.5640 C   0  0  0  0  0  0  0  0  0  0  0  0
   19.3670  -14.7630   24.6810 C   0  0  0  0  0  0  0  0  0  0  0  0
   20.4020  -15.5460   24.1460 C   0  0  0  0  0  0  0  0  0  0  0  0
   19.6820  -13.5850   25.3690 C   0  0  0  0  0  0  0  0  0  0  0  0
   21.7310  -15.1380   24.2840 C   0  0  0  0  0  0  0  0  0  0  0  0
   21.0130  -13.1700   25.4930 C   0  0  0  0  0  0  0  0  0  0  0  0
   22.0400  -13.9470   24.9520 C   0  0  0  0  0  0  0  0  0  0  0  0
   18.0890  -13.3100   21.6440 N   0  0  0  0  0  0  0  0  0  0  0  0
   17.8790  -11.9630   21.0250 C   0  0  2  0  0  0  0  0  0  0  0  0
   16.4460  -11.8510   20.4380 C   0  0  0  0  0  0  0  0  0  0  0  0
   15.9280  -12.7390   19.7760 O   0  0  0  0  0  0  0  0  0  0  0  0
   18.9470  -11.8640   19.9150 C   0  0  0  0  0  0  0  0  0  0  0  0
   19.9910  -12.9610   20.1990 C   0  0  0  0  0  0  0  0  0  0  0  0
   19.3010  -13.9990   21.1010 C   0  0  0  0  0  0  0  0  0  0  0  0
   15.8360  -10.6170   20.6170 N   0  0  0  0  0  0  0  0  0  0  0  0
   14.4220  -10.3900   20.2140 C   0  0  0  0  0  0  0  0  0  0  0  0
   13.4620  -10.3830   21.3810 C   0  0  0  0  0  0  0  0  0  0  0  0
   13.4600   -9.2900   22.2620 C   0  0  0  0  0  0  0  0  0  0  0  0
   12.5330   -9.2510   23.3030 C   0  0  0  0  0  0  0  0  0  0  0  0
   11.5860  -10.2640   23.4720 C   0  0  0  0  0  0  0  0  0  0  0  0
   11.6010  -11.3530   22.5950 C   0  0  0  0  0  0  0  0  0  0  0  0
   12.5370  -11.4200   21.5590 C   0  0  0  0  0  0  0  0  0  0  0  0
   14.1810   -8.4840   22.1210 H   0  0  0  0  0  0  0  0  0  0  0  0
   12.5950   -7.8010   24.5430 Br  0  0  0  0  0  0  0  0  0  0  0  0
   10.8330  -10.2210   24.2690 H   0  0  0  0  0  0  0  0  0  0  0  0
   10.8710  -12.1610   22.7220 H   0  0  0  0  0  0  0  0  0  0  0  0
   12.5340  -12.2860   20.8910 H   0  0  0  0  0  0  0  0  0  0  0  0
   18.8900  -13.0010   25.8290 H   0  0  0  0  0  0  0  0  0  0  0  0
   21.2260  -12.2340   26.0170 H   0  0  0  0  0  0  0  0  0  0  0  0
   22.5250  -15.7630   23.8640 H   0  0  0  0  0  0  0  0  0  0  0  0
   23.0840  -13.6380   25.0500 H   0  0  0  0  0  0  0  0  0  0  0  0
   20.1690  -16.4810   23.6310 H   0  0  0  0  0  0  0  0  0  0  0  0
   16.2430  -16.9790   23.4790 H   0  0  0  0  0  0  0  0  0  0  0  0
   15.3450  -15.4820   23.5460 H   0  0  0  0  0  0  0  0  0  0  0  0
   15.8310  -16.1750   22.0240 H   0  0  0  0  0  0  0  0  0  0  0  0
   18.1770  -15.8440   22.4790 H   0  0  0  0  0  0  0  0  0  0  0  0
   17.8710  -16.2550   24.9920 H   0  0  0  0  0  0  0  0  0  0  0  0
   17.2590  -14.5540   25.1690 H   0  0  0  0  0  0  0  0  0  0  0  0
   18.0610  -11.1880   21.8170 H   0  0  0  0  0  0  0  0  0  0  0  0
   19.4290  -10.8670   19.9470 H   0  0  0  0  0  0  0  0  0  0  0  0
   18.4960  -12.0390   18.9090 H   0  0  0  0  0  0  0  0  0  0  0  0
   20.8820  -12.5390   20.7200 H   0  0  0  0  0  0  0  0  0  0  0  0
   20.3350  -13.4450   19.2520 H   0  0  0  0  0  0  0  0  0  0  0  0
   18.9960  -14.9000   20.5090 H   0  0  0  0  0  0  0  0  0  0  0  0
   19.9730  -14.3080   21.9420 H   0  0  0  0  0  0  0  0  0  0  0  0
   16.2370   -9.9220   21.2700 H   0  0  0  0  0  0  0  0  0  0  0  0
   14.1250  -11.1760   19.4630 H   0  0  0  0  0  0  0  0  0  0  0  0
   14.3790   -9.3830   19.7090 H   0  0  0  0  0  0  0  0  0  0  0  0
  1  2  1  0  0  0  0
  1 37  1  0  0  0  0
  1 38  1  0  0  0  0
  1 39  1  0  0  0  0
  2  3  1  0  0  0  0
  2  5  1  0  0  0  0
  2 40  1  0  0  0  0
  3  4  2  0  0  0  0
  3 12  1  0  0  0  0
  5  6  1  0  0  0  0
  5 41  1  0  0  0  0
  5 42  1  0  0  0  0
  6  7  2  0  0  0  0
  6  8  1  0  0  0  0
  7  9  1  0  0  0  0
  7 36  1  0  0  0  0
  8 10  2  0  0  0  0
  8 32  1  0  0  0  0
  9 11  2  0  0  0  0
  9 34  1  0  0  0  0
 10 11  1  0  0  0  0
 10 33  1  0  0  0  0
 11 35  1  0  0  0  0
 12 13  1  0  0  0  0
 12 18  1  0  0  0  0
 13 14  1  0  0  0  0
 13 16  1  0  0  0  0
 13 43  1  0  0  0  0
 14 15  2  0  0  0  0
 14 19  1  0  0  0  0
 16 17  1  0  0  0  0
 16 44  1  0  0  0  0
 16 45  1  0  0  0  0
 17 18  1  0  0  0  0
 17 46  1  0  0  0  0
 17 47  1  0  0  0  0
 18 48  1  0  0  0  0
 18 49  1  0  0  0  0
 19 20  1  0  0  0  0
 19 50  1  0  0  0  0
 20 21  1  0  0  0  0
 20 51  1  0  0  0  0
 20 52  1  0  0  0  0
 21 22  2  0  0  0  0
 21 26  1  0  0  0  0
 22 23  1  0  0  0  0
 22 27  1  0  0  0  0
 23 24  2  0  0  0  0
 23 28  1  0  0  0  0
 24 25  1  0  0  0  0
 24 29  1  0  0  0  0
 25 26  2  0  0  0  0
 25 30  1  0  0  0  0
 26 31  1  0  0  0  0
M  CHG  1   1   1
M  END
$$$$
