20669(2qbr)
 OpenBabel02232411173D
Structure written by MMmdl.
 42 44  0  0  0  0  0  0  0  0999 V2000
   40.4600   18.2900   12.8820 O   0  0  0  0  0  0  0  0  0  0  0  0
   41.4740   17.5610   12.8460 C   0  0  0  0  0  0  0  0  0  0  0  0
   42.6010   17.8910   12.4560 O   0  5  0  0  0  0  0  0  0  0  0  0
   41.2500   16.0810   13.2940 C   0  0  0  0  0  0  0  0  0  0  0  0
   42.6140   15.6170   13.5610 O   0  0  0  0  0  0  0  0  0  0  0  0
   42.7530   14.8530   14.6740 C   0  0  0  0  0  0  0  0  0  0  0  0
   42.1420   13.5550   14.8650 C   0  0  0  0  0  0  0  0  0  0  0  0
   40.8500   12.8520   13.6530 Br  0  0  0  0  0  0  0  0  0  0  0  0
   42.5740   12.8810   15.9770 C   0  0  0  0  0  0  0  0  0  0  0  0
   42.1850   11.5750   16.4690 C   0  0  0  0  0  0  0  0  0  0  0  0
   43.1340   10.6790   17.0150 C   0  0  0  0  0  0  0  0  0  0  0  0
   42.7330    9.4120   17.4230 C   0  0  0  0  0  0  0  0  0  0  0  0
   41.4070    8.9790   17.2760 C   0  0  0  0  0  0  0  0  0  0  0  0
   40.4590    9.8580   16.7360 C   0  0  0  0  0  0  0  0  0  0  0  0
   39.0590    9.5730   16.6040 N   0  0  0  0  0  0  0  0  0  0  0  0
   38.5600    8.1800   16.7170 C   0  0  0  0  0  0  0  0  0  0  0  0
   38.4900    7.4420   15.3940 C   0  0  0  0  0  0  0  0  0  0  0  0
   39.6550    6.9890   14.7570 C   0  0  0  0  0  0  0  0  0  0  0  0
   39.5690    6.2870   13.5510 C   0  0  0  0  0  0  0  0  0  0  0  0
   38.3230    6.0240   12.9740 C   0  0  0  0  0  0  0  0  0  0  0  0
   37.1600    6.4780   13.6020 C   0  0  0  0  0  0  0  0  0  0  0  0
   37.2430    7.1880   14.8030 C   0  0  0  0  0  0  0  0  0  0  0  0
   40.8490   11.1680   16.3750 C   0  0  0  0  0  0  0  0  0  0  0  0
   43.7670   13.8630   16.7940 S   0  0  0  0  0  0  0  0  0  0  0  0
   43.6280   15.1920   15.6750 C   0  0  0  0  0  0  0  0  0  0  0  0
   44.4200   16.4780   15.9000 C   0  0  0  0  0  0  0  0  0  0  0  0
   43.9550   17.5480   15.5120 O   0  0  0  0  0  0  0  0  0  0  0  0
   45.5320   16.3230   16.4540 O   0  5  0  0  0  0  0  0  0  0  0  0
   40.5960   15.9960   14.1860 H   0  0  0  0  0  0  0  0  0  0  0  0
   40.8620   15.4540   12.4640 H   0  0  0  0  0  0  0  0  0  0  0  0
   44.1830   10.9600   17.1180 H   0  0  0  0  0  0  0  0  0  0  0  0
   43.4560    8.7200   17.8610 H   0  0  0  0  0  0  0  0  0  0  0  0
   41.1510    7.9710   17.5940 H   0  0  0  0  0  0  0  0  0  0  0  0
   38.6350   10.0340   15.7780 H   0  0  0  0  0  0  0  0  0  0  0  0
   39.1710    7.5800   17.4450 H   0  0  0  0  0  0  0  0  0  0  0  0
   37.5230    8.2540   17.1620 H   0  0  0  0  0  0  0  0  0  0  0  0
   40.6390    7.1640   15.2050 H   0  0  0  0  0  0  0  0  0  0  0  0
   40.4810    5.9250   13.0670 H   0  0  0  0  0  0  0  0  0  0  0  0
   38.2580    5.4530   12.0470 H   0  0  0  0  0  0  0  0  0  0  0  0
   36.1820    6.2650   13.1630 H   0  0  0  0  0  0  0  0  0  0  0  0
   36.3230    7.5300   15.2850 H   0  0  0  0  0  0  0  0  0  0  0  0
   40.0750   11.8610   16.0320 H   0  0  0  0  0  0  0  0  0  0  0  0
  1  2  2  0  0  0  0
  2  3  1  0  0  0  0
  2  4  1  0  0  0  0
  4  5  1  0  0  0  0
  4 29  1  0  0  0  0
  4 30  1  0  0  0  0
  5  6  1  0  0  0  0
  6 25  2  0  0  0  0
  6  7  1  0  0  0  0
  7  8  1  0  0  0  0
  7  9  2  0  0  0  0
  9 10  1  0  0  0  0
  9 24  1  0  0  0  0
 10 23  2  0  0  0  0
 10 11  1  0  0  0  0
 11 12  2  0  0  0  0
 11 31  1  0  0  0  0
 12 13  1  0  0  0  0
 12 32  1  0  0  0  0
 13 14  2  0  0  0  0
 13 33  1  0  0  0  0
 14 15  1  0  0  0  0
 14 23  1  0  0  0  0
 15 16  1  0  0  0  0
 15 34  1  0  0  0  0
 16 17  1  0  0  0  0
 16 35  1  0  0  0  0
 16 36  1  0  0  0  0
 17 22  2  0  0  0  0
 17 18  1  0  0  0  0
 18 19  2  0  0  0  0
 18 37  1  0  0  0  0
 19 20  1  0  0  0  0
 19 38  1  0  0  0  0
 20 21  2  0  0  0  0
 20 39  1  0  0  0  0
 21 22  1  0  0  0  0
 21 40  1  0  0  0  0
 22 41  1  0  0  0  0
 23 42  1  0  0  0  0
 24 25  1  0  0  0  0
 25 26  1  0  0  0  0
 26 27  2  0  0  0  0
 26 28  1  0  0  0  0
M  CHG  2   3  -1  28  -1
M  END
$$$$
