p38a_3flw
 OpenBabel02232411163D
Structure written by MMmdl.
 49 51  0  0  0  0  0  0  0  0999 V2000
   38.3170   36.5860   17.0750 C   0  0  0  0  0  0  0  0  0  0  0  0
   37.7010   36.7730   15.8300 C   0  0  0  0  0  0  0  0  0  0  0  0
   34.4350   37.5120   26.5980 C   0  0  0  0  0  0  0  0  0  0  0  0
   33.8580   36.5590   27.6550 C   0  0  0  0  0  0  0  0  0  0  0  0
   33.1480   39.6120   27.3690 C   0  0  0  0  0  0  0  0  0  0  0  0
   33.6580   34.7830   23.3640 C   0  0  0  0  0  0  0  0  0  0  0  0
   38.0060   35.9380   19.3170 F   0  0  0  0  0  0  0  0  0  0  0  0
   37.5080   36.0950   18.0960 C   0  0  0  0  0  0  0  0  0  0  0  0
   38.4200   37.3050   14.8450 F   0  0  0  0  0  0  0  0  0  0  0  0
   36.3610   36.4730   15.5790 C   0  0  0  0  0  0  0  0  0  0  0  0
   35.5740   35.9620   16.6150 C   0  0  0  0  0  0  0  0  0  0  0  0
   36.1550   35.7640   17.8710 C   0  0  0  0  0  0  0  0  0  0  0  0
   35.4070   35.1020   18.8510 O   0  0  0  0  0  0  0  0  0  0  0  0
   35.0190   35.8760   19.9430 C   0  0  0  0  0  0  0  0  0  0  0  0
   35.0670   37.2240   20.0580 C   0  0  0  0  0  0  0  0  0  0  0  0
   34.6710   37.8250   21.3010 C   0  0  0  0  0  0  0  0  0  0  0  0
   34.7080   39.2260   21.5410 C   0  0  0  0  0  0  0  0  0  0  0  0
   34.4390   39.7740   22.7350 N   0  0  0  0  0  0  0  0  0  0  0  0
   34.5040   34.9580   20.9930 C   0  0  0  0  0  0  0  0  0  0  0  0
   34.3860   33.7570   20.8800 O   0  0  0  0  0  0  0  0  0  0  0  0
   34.1340   35.6090   22.2190 N   0  0  0  0  0  0  0  0  0  0  0  0
   34.2430   37.0010   22.3840 C   0  0  0  0  0  0  0  0  0  0  0  0
   33.9370   37.5310   23.6100 N   0  0  0  0  0  0  0  0  0  0  0  0
   34.0970   38.8920   23.7820 C   0  0  0  0  0  0  0  0  0  0  0  0
   33.9670   39.4220   25.0460 N   0  0  0  0  0  0  0  0  0  0  0  0
   33.4440   38.6300   26.2130 C   0  0  0  0  0  0  0  0  0  0  0  0
   34.3790   40.2550   28.0280 C   0  0  0  0  0  0  0  0  0  0  0  0
   34.8770   39.5070   29.1460 O   0  0  0  0  0  0  0  0  0  0  0  0
   34.7410   36.5170   28.7990 O   0  0  0  0  0  0  0  0  0  0  0  0
   39.3640   36.8490   17.2470 H   0  0  0  0  0  0  0  0  0  0  0  0
   35.3880   37.9550   26.9650 H   0  0  0  0  0  0  0  0  0  0  0  0
   34.6800   36.9090   25.6870 H   0  0  0  0  0  0  0  0  0  0  0  0
   32.8940   36.9130   28.0860 H   0  0  0  0  0  0  0  0  0  0  0  0
   33.7430   35.5290   27.2460 H   0  0  0  0  0  0  0  0  0  0  0  0
   32.4910   40.4300   26.9760 H   0  0  0  0  0  0  0  0  0  0  0  0
   32.5530   39.0720   28.1460 H   0  0  0  0  0  0  0  0  0  0  0  0
   32.6480   35.1430   23.7010 H   0  0  0  0  0  0  0  0  0  0  0  0
   33.5810   33.7070   23.0600 H   0  0  0  0  0  0  0  0  0  0  0  0
   34.3690   34.8720   24.2290 H   0  0  0  0  0  0  0  0  0  0  0  0
   35.9150   36.6490   14.5980 H   0  0  0  0  0  0  0  0  0  0  0  0
   34.5170   35.7360   16.4400 H   0  0  0  0  0  0  0  0  0  0  0  0
   35.4090   37.8780   19.2540 H   0  0  0  0  0  0  0  0  0  0  0  0
   34.9680   39.9160   20.7200 H   0  0  0  0  0  0  0  0  0  0  0  0
   33.9520   40.4570   25.1520 H   0  0  0  0  0  0  0  0  0  0  0  0
   32.4700   38.1510   25.9030 H   0  0  0  0  0  0  0  0  0  0  0  0
   35.2070   40.3760   27.2920 H   0  0  0  0  0  0  0  0  0  0  0  0
   34.0980   41.2370   28.4790 H   0  0  0  0  0  0  0  0  0  0  0  0
   34.9330   38.5410   28.8960 H   0  0  0  0  0  0  0  0  0  0  0  0
   35.4960   35.8930   28.5680 H   0  0  0  0  0  0  0  0  0  0  0  0
  1  2  2  0  0  0  0
  1  8  1  0  0  0  0
  1 30  1  0  0  0  0
  2  9  1  0  0  0  0
  2 10  1  0  0  0  0
  3  4  1  0  0  0  0
  3 26  1  0  0  0  0
  3 31  1  0  0  0  0
  3 32  1  0  0  0  0
  4 29  1  0  0  0  0
  4 33  1  0  0  0  0
  4 34  1  0  0  0  0
  5 26  1  0  0  0  0
  5 27  1  0  0  0  0
  5 35  1  0  0  0  0
  5 36  1  0  0  0  0
  6 21  1  0  0  0  0
  6 37  1  0  0  0  0
  6 38  1  0  0  0  0
  6 39  1  0  0  0  0
  7  8  1  0  0  0  0
  8 12  2  0  0  0  0
 10 11  2  0  0  0  0
 10 40  1  0  0  0  0
 11 12  1  0  0  0  0
 11 41  1  0  0  0  0
 12 13  1  0  0  0  0
 13 14  1  0  0  0  0
 14 15  2  0  0  0  0
 14 19  1  0  0  0  0
 15 16  1  0  0  0  0
 15 42  1  0  0  0  0
 16 17  2  0  0  0  0
 16 22  1  0  0  0  0
 17 18  1  0  0  0  0
 17 43  1  0  0  0  0
 18 24  2  0  0  0  0
 19 20  2  0  0  0  0
 19 21  1  0  0  0  0
 21 22  1  0  0  0  0
 22 23  2  0  0  0  0
 23 24  1  0  0  0  0
 24 25  1  0  0  0  0
 25 26  1  0  0  0  0
 25 44  1  0  0  0  0
 26 45  1  0  0  0  0
 27 28  1  0  0  0  0
 27 46  1  0  0  0  0
 27 47  1  0  0  0  0
 28 48  1  0  0  0  0
 29 49  1  0  0  0  0
M  END
$$$$
