p38a_2m
 OpenBabel02232411163D
Structure written by MMmdl.
 50 54  0  0  0  0  0  0  0  0999 V2000
   38.2820   36.5910   17.1110 C   0  0  0  0  0  0  0  0  0  0  0  0
   34.5440   35.0350   21.1380 C   0  0  0  0  0  0  0  0  0  0  0  0
   37.4910   36.1220   18.1570 C   0  0  0  0  0  0  0  0  0  0  0  0
   33.9810   39.0110   23.8510 C   0  0  0  0  0  0  0  0  0  0  0  0
   34.6900   37.9060   21.4220 C   0  0  0  0  0  0  0  0  0  0  0  0
   35.0880   37.2980   20.1810 C   0  0  0  0  0  0  0  0  0  0  0  0
   37.6390   36.7780   15.8800 C   0  0  0  0  0  0  0  0  0  0  0  0
   36.2870   36.5020   15.6660 C   0  0  0  0  0  0  0  0  0  0  0  0
   35.5170   36.0180   16.7280 C   0  0  0  0  0  0  0  0  0  0  0  0
   34.2840   37.0910   22.5190 C   0  0  0  0  0  0  0  0  0  0  0  0
   34.6900   39.3110   21.6340 C   0  0  0  0  0  0  0  0  0  0  0  0
   35.0390   35.9510   20.0730 C   0  0  0  0  0  0  0  0  0  0  0  0
   36.1260   35.8180   17.9710 C   0  0  0  0  0  0  0  0  0  0  0  0
   38.0190   35.9590   19.3630 F   0  0  0  0  0  0  0  0  0  0  0  0
   35.3960   35.1700   18.9750 O   0  0  0  0  0  0  0  0  0  0  0  0
   34.3610   39.8770   22.8050 N   0  0  0  0  0  0  0  0  0  0  0  0
   34.3900   33.8420   21.0160 O   0  0  0  0  0  0  0  0  0  0  0  0
   34.2360   35.6880   22.3850 N   0  0  0  0  0  0  0  0  0  0  0  0
   33.9240   37.6330   23.7230 N   0  0  0  0  0  0  0  0  0  0  0  0
   33.6240   39.5690   25.0540 N   0  0  0  0  0  0  0  0  0  0  0  0
   39.3380   36.8350   17.2540 H   0  0  0  0  0  0  0  0  0  0  0  0
   35.4200   37.9490   19.3690 H   0  0  0  0  0  0  0  0  0  0  0  0
   35.8210   36.6720   14.6930 H   0  0  0  0  0  0  0  0  0  0  0  0
   34.4520   35.8130   16.5810 H   0  0  0  0  0  0  0  0  0  0  0  0
   34.9690   39.9880   20.8100 H   0  0  0  0  0  0  0  0  0  0  0  0
   33.7000   40.5940   25.1920 H   0  0  0  0  0  0  0  0  0  0  0  0
   38.3470   37.2800   14.8710 F   0  0  0  0  0  0  0  0  0  0  0  0
   33.1900   40.4630   28.1390 C   0  0  0  0  0  0  0  0  0  0  0  0
   32.3570   39.5960   27.1870 C   0  0  0  0  0  0  0  0  0  0  0  0
   33.2060   38.7360   26.2280 C   0  0  0  0  0  0  0  0  0  0  0  0
   34.4170   38.1080   26.9490 C   0  0  0  0  0  0  0  0  0  0  0  0
   35.1520   39.1090   27.8410 C   0  0  0  0  0  0  0  0  0  0  0  0
   34.2440   39.7210   28.7870 O   0  0  0  0  0  0  0  0  0  0  0  0
   32.5770   40.8130   29.0010 H   0  0  0  0  0  0  0  0  0  0  0  0
   33.6490   41.3190   27.5960 H   0  0  0  0  0  0  0  0  0  0  0  0
   31.6820   40.2630   26.5950 H   0  0  0  0  0  0  0  0  0  0  0  0
   31.7130   38.9000   27.7810 H   0  0  0  0  0  0  0  0  0  0  0  0
   32.5550   37.8990   25.8360 H   0  0  0  0  0  0  0  0  0  0  0  0
   34.0360   37.2570   27.5690 H   0  0  0  0  0  0  0  0  0  0  0  0
   35.1310   37.6810   26.2030 H   0  0  0  0  0  0  0  0  0  0  0  0
   35.8820   38.6000   28.5120 H   0  0  0  0  0  0  0  0  0  0  0  0
   35.6340   39.9100   27.2360 H   0  0  0  0  0  0  0  0  0  0  0  0
   33.8270   34.8850   23.5580 C   0  0  0  0  0  0  0  0  0  0  0  0
   34.7030   34.8900   24.8090 C   0  0  0  0  0  0  0  0  0  0  0  0
   34.6060   33.6400   23.9600 C   0  0  0  0  0  0  0  0  0  0  0  0
   32.7270   34.8940   23.6860 H   0  0  0  0  0  0  0  0  0  0  0  0
   35.6390   35.4570   24.8230 H   0  0  0  0  0  0  0  0  0  0  0  0
   34.1930   34.9230   25.7840 H   0  0  0  0  0  0  0  0  0  0  0  0
   35.4870   33.3130   23.4000 H   0  0  0  0  0  0  0  0  0  0  0  0
   34.0220   32.7890   24.3460 H   0  0  0  0  0  0  0  0  0  0  0  0
  1  3  2  0  0  0  0
  1  7  1  0  0  0  0
  1 21  1  0  0  0  0
  2 12  1  0  0  0  0
  2 17  2  0  0  0  0
  2 18  1  0  0  0  0
  3 13  1  0  0  0  0
  3 14  1  0  0  0  0
  4 16  2  0  0  0  0
  4 19  1  0  0  0  0
  4 20  1  0  0  0  0
  5  6  1  0  0  0  0
  5 10  1  0  0  0  0
  5 11  2  0  0  0  0
  6 12  2  0  0  0  0
  6 22  1  0  0  0  0
  7  8  2  0  0  0  0
  7 27  1  0  0  0  0
  8  9  1  0  0  0  0
  8 23  1  0  0  0  0
  9 13  2  0  0  0  0
  9 24  1  0  0  0  0
 10 18  1  0  0  0  0
 10 19  2  0  0  0  0
 11 16  1  0  0  0  0
 11 25  1  0  0  0  0
 12 15  1  0  0  0  0
 13 15  1  0  0  0  0
 18 43  1  0  0  0  0
 20 26  1  0  0  0  0
 20 30  1  0  0  0  0
 28 29  1  0  0  0  0
 28 33  1  0  0  0  0
 28 34  1  0  0  0  0
 28 35  1  0  0  0  0
 29 30  1  0  0  0  0
 29 36  1  0  0  0  0
 29 37  1  0  0  0  0
 30 31  1  0  0  0  0
 30 38  1  0  0  0  0
 31 32  1  0  0  0  0
 31 39  1  0  0  0  0
 31 40  1  0  0  0  0
 32 33  1  0  0  0  0
 32 41  1  0  0  0  0
 32 42  1  0  0  0  0
 43 44  1  0  0  0  0
 43 45  1  0  0  0  0
 43 46  1  0  0  0  0
 44 45  1  0  0  0  0
 44 47  1  0  0  0  0
 44 48  1  0  0  0  0
 45 49  1  0  0  0  0
 45 50  1  0  0  0  0
M  END
$$$$
