1oi9
 OpenBabel02232411153D
Structure written by MMmdl.
 46 49  0  0  0  0  0  0  0  0999 V2000
    1.5680   28.8780    6.8300 C   0  0  0  0  0  0  0  0  0  0  0  0
   -1.7760   31.6020    8.1000 C   0  0  0  0  0  0  0  0  0  0  0  0
   -0.4850   26.0320    8.8630 C   0  0  0  0  0  0  0  0  0  0  0  0
   -1.1240   25.3320   10.0690 C   0  0  0  0  0  0  0  0  0  0  0  0
   -0.8910   23.8150    9.8720 C   0  0  0  0  0  0  0  0  0  0  0  0
   -1.3530   23.0050   11.0910 C   0  0  0  0  0  0  0  0  0  0  0  0
   -0.7080   23.5200   12.3880 C   0  0  0  0  0  0  0  0  0  0  0  0
   -0.9960   25.0170   12.5890 C   0  0  0  0  0  0  0  0  0  0  0  0
   -0.5060   25.8380   11.3870 C   0  0  0  0  0  0  0  0  0  0  0  0
    4.0300   25.7170    8.5980 C   0  0  0  0  0  0  0  0  0  0  0  0
    5.0610   25.2050    7.8030 C   0  0  0  0  0  0  0  0  0  0  0  0
    5.2770   25.6710    6.4930 C   0  0  0  0  0  0  0  0  0  0  0  0
    4.4890   26.7140    6.0170 C   0  0  0  0  0  0  0  0  0  0  0  0
    0.7950   27.9390    7.5120 N   0  0  0  0  0  0  0  0  0  0  0  0
   -0.3580   28.3100    8.1170 C   0  0  0  0  0  0  0  0  0  0  0  0
   -1.0450   27.4110    8.8440 O   0  0  0  0  0  0  0  0  0  0  0  0
   -0.8160   29.6470    7.9980 C   0  0  0  0  0  0  0  0  0  0  0  0
   -1.9210   30.3380    8.5050 N   0  0  0  0  0  0  0  0  0  0  0  0
   -0.5760   31.7920    7.3270 N   0  0  0  0  0  0  0  0  0  0  0  0
    0.0400   30.5470    7.2390 C   0  0  0  0  0  0  0  0  0  0  0  0
    1.2200   30.2020    6.6280 N   0  0  0  0  0  0  0  0  0  0  0  0
    2.7710   28.4170    6.3040 N   0  0  0  0  0  0  0  0  0  0  0  0
    3.4940   27.2910    6.8390 C   0  0  0  0  0  0  0  0  0  0  0  0
    3.2700   26.7820    8.1280 C   0  0  0  0  0  0  0  0  0  0  0  0
   -2.4380   32.4330    8.3240 H   0  0  0  0  0  0  0  0  0  0  0  0
    0.6220   26.0800    8.9760 H   0  0  0  0  0  0  0  0  0  0  0  0
   -0.7830   25.5810    7.8960 H   0  0  0  0  0  0  0  0  0  0  0  0
   -2.2220   25.5300   10.0980 H   0  0  0  0  0  0  0  0  0  0  0  0
   -1.4520   23.4700    8.9750 H   0  0  0  0  0  0  0  0  0  0  0  0
    0.1990   23.6240    9.7130 H   0  0  0  0  0  0  0  0  0  0  0  0
   -2.4570   23.0820   11.1880 H   0  0  0  0  0  0  0  0  0  0  0  0
   -1.0810   21.9330   10.9480 H   0  0  0  0  0  0  0  0  0  0  0  0
   -1.1080   22.9450   13.2540 H   0  0  0  0  0  0  0  0  0  0  0  0
    0.3950   23.3650   12.3320 H   0  0  0  0  0  0  0  0  0  0  0  0
   -2.0900   25.1690   12.7360 H   0  0  0  0  0  0  0  0  0  0  0  0
   -0.4710   25.3690   13.5060 H   0  0  0  0  0  0  0  0  0  0  0  0
    0.6070   25.7570   11.3410 H   0  0  0  0  0  0  0  0  0  0  0  0
   -0.7780   26.9070   11.5370 H   0  0  0  0  0  0  0  0  0  0  0  0
    3.8170   25.2900    9.5740 H   0  0  0  0  0  0  0  0  0  0  0  0
    6.0560   25.2370    5.8620 H   0  0  0  0  0  0  0  0  0  0  0  0
    4.6560   27.1010    5.0070 H   0  0  0  0  0  0  0  0  0  0  0  0
   -0.2810   32.6610    6.8550 H   0  0  0  0  0  0  0  0  0  0  0  0
    3.3740   29.0800    5.7680 H   0  0  0  0  0  0  0  0  0  0  0  0
    2.5130   27.2050    8.7900 H   0  0  0  0  0  0  0  0  0  0  0  0
    5.9500   24.2730    8.2870 O   0  0  0  0  0  0  0  0  0  0  0  0
    5.7160   24.0640    9.3000 H   0  0  0  0  0  0  0  0  0  0  0  0
  1 14  2  0  0  0  0
  1 21  1  0  0  0  0
  1 22  1  0  0  0  0
  2 18  2  0  0  0  0
  2 19  1  0  0  0  0
  2 25  1  0  0  0  0
  3  4  1  0  0  0  0
  3 16  1  0  0  0  0
  3 26  1  0  0  0  0
  3 27  1  0  0  0  0
  4  5  1  0  0  0  0
  4  9  1  0  0  0  0
  4 28  1  0  0  0  0
  5  6  1  0  0  0  0
  5 29  1  0  0  0  0
  5 30  1  0  0  0  0
  6  7  1  0  0  0  0
  6 31  1  0  0  0  0
  6 32  1  0  0  0  0
  7  8  1  0  0  0  0
  7 33  1  0  0  0  0
  7 34  1  0  0  0  0
  8  9  1  0  0  0  0
  8 35  1  0  0  0  0
  8 36  1  0  0  0  0
  9 37  1  0  0  0  0
  9 38  1  0  0  0  0
 10 11  2  0  0  0  0
 10 24  1  0  0  0  0
 10 39  1  0  0  0  0
 11 12  1  0  0  0  0
 11 45  1  0  0  0  0
 12 13  2  0  0  0  0
 12 40  1  0  0  0  0
 13 23  1  0  0  0  0
 13 41  1  0  0  0  0
 14 15  1  0  0  0  0
 15 16  1  0  0  0  0
 15 17  2  0  0  0  0
 17 18  1  0  0  0  0
 17 20  1  0  0  0  0
 19 20  1  0  0  0  0
 19 42  1  0  0  0  0
 20 21  2  0  0  0  0
 22 23  1  0  0  0  0
 22 43  1  0  0  0  0
 23 24  2  0  0  0  0
 24 44  1  0  0  0  0
 45 46  1  0  0  0  0
M  END
$$$$
