28
 OpenBabel02232411153D
Structure written by MMmdl.
 53 56  0  0  0  0  0  0  0  0999 V2000
    2.0690   28.7850    6.7340 C   0  0  0  0  0  0  0  0  0  0  0  0
   -1.4210   31.3730    7.8840 C   0  0  0  0  0  0  0  0  0  0  0  0
    0.2250   25.9830    9.0240 C   0  0  0  0  0  0  0  0  0  0  0  0
   -0.6710   25.2520   10.0300 C   0  0  0  0  0  0  0  0  0  0  0  0
   -0.6080   23.7390    9.7220 C   0  0  0  0  0  0  0  0  0  0  0  0
   -1.4000   22.9290   10.7570 C   0  0  0  0  0  0  0  0  0  0  0  0
   -0.9420   23.2290   12.1930 C   0  0  0  0  0  0  0  0  0  0  0  0
   -1.0210   24.7330   12.4980 C   0  0  0  0  0  0  0  0  0  0  0  0
   -0.2240   25.5530   11.4730 C   0  0  0  0  0  0  0  0  0  0  0  0
    5.7320   25.7910    5.2810 C   0  0  0  0  0  0  0  0  0  0  0  0
    5.6440   24.8930    6.3570 C   0  0  0  0  0  0  0  0  0  0  0  0
    4.7480   25.1750    7.3990 C   0  0  0  0  0  0  0  0  0  0  0  0
    3.9440   26.3180    7.3760 C   0  0  0  0  0  0  0  0  0  0  0  0
    1.3930   27.8470    7.5010 N   0  0  0  0  0  0  0  0  0  0  0  0
    0.1900   28.1750    8.0480 C   0  0  0  0  0  0  0  0  0  0  0  0
   -0.4620   27.2860    8.8080 O   0  0  0  0  0  0  0  0  0  0  0  0
   -0.3610   29.4670    7.8370 C   0  0  0  0  0  0  0  0  0  0  0  0
   -1.5150   30.1080    8.3020 N   0  0  0  0  0  0  0  0  0  0  0  0
   -0.2110   31.6140    7.1410 N   0  0  0  0  0  0  0  0  0  0  0  0
    0.4600   30.3960    7.0780 C   0  0  0  0  0  0  0  0  0  0  0  0
    1.6570   30.0820    6.4830 N   0  0  0  0  0  0  0  0  0  0  0  0
    3.2660   28.3960    6.1280 N   0  0  0  0  0  0  0  0  0  0  0  0
    4.0160   27.1980    6.2820 C   0  0  0  0  0  0  0  0  0  0  0  0
    4.9380   26.9290    5.2410 C   0  0  0  0  0  0  0  0  0  0  0  0
   -2.1310   32.1740    8.0660 H   0  0  0  0  0  0  0  0  0  0  0  0
    1.2400   26.1890    9.4300 H   0  0  0  0  0  0  0  0  0  0  0  0
    0.2650   25.4810    8.0360 H   0  0  0  0  0  0  0  0  0  0  0  0
   -1.7250   25.6060    9.9080 H   0  0  0  0  0  0  0  0  0  0  0  0
   -1.0310   23.5520    8.7100 H   0  0  0  0  0  0  0  0  0  0  0  0
    0.4580   23.4040    9.7380 H   0  0  0  0  0  0  0  0  0  0  0  0
   -2.4790   23.1860   10.6660 H   0  0  0  0  0  0  0  0  0  0  0  0
   -1.2660   21.8410   10.5580 H   0  0  0  0  0  0  0  0  0  0  0  0
   -1.5910   22.6720   12.9080 H   0  0  0  0  0  0  0  0  0  0  0  0
    0.1100   22.8830   12.3230 H   0  0  0  0  0  0  0  0  0  0  0  0
   -2.0870   25.0560   12.4930 H   0  0  0  0  0  0  0  0  0  0  0  0
   -0.6030   24.9260   13.5140 H   0  0  0  0  0  0  0  0  0  0  0  0
    0.8590   25.3070   11.5900 H   0  0  0  0  0  0  0  0  0  0  0  0
   -0.3610   26.6380   11.6870 H   0  0  0  0  0  0  0  0  0  0  0  0
    6.4250   25.6220    4.4460 H   0  0  0  0  0  0  0  0  0  0  0  0
    4.6580   24.5030    8.2640 H   0  0  0  0  0  0  0  0  0  0  0  0
    3.2610   26.5090    8.2070 H   0  0  0  0  0  0  0  0  0  0  0  0
    0.0390   32.5000    6.6790 H   0  0  0  0  0  0  0  0  0  0  0  0
    3.7130   29.0970    5.4810 H   0  0  0  0  0  0  0  0  0  0  0  0
    5.0370   27.6130    4.3980 H   0  0  0  0  0  0  0  0  0  0  0  0
    6.6420   23.4920    6.3980 S   0  0  0  0  0  0  0  0  0  0  0  0
    7.7040   23.6970    7.3940 O   0  0  0  0  0  0  0  0  0  0  0  0
    5.8340   22.2730    6.5640 O   0  0  0  0  0  0  0  0  0  0  0  0
    7.3650   23.3490    4.8520 N   0  0  0  0  0  0  0  0  0  0  0  0
    7.2250   22.4690    4.3290 H   0  0  0  0  0  0  0  0  0  0  0  0
    8.7340   23.8870    4.6460 C   0  0  0  0  0  0  0  0  0  0  0  0
    8.9190   23.9490    3.5370 H   0  0  0  0  0  0  0  0  0  0  0  0
    8.8070   24.9290    5.0540 H   0  0  0  0  0  0  0  0  0  0  0  0
    9.5320   23.2520    5.1070 H   0  0  0  0  0  0  0  0  0  0  0  0
  1 14  2  0  0  0  0
  1 21  1  0  0  0  0
  1 22  1  0  0  0  0
  2 18  2  0  0  0  0
  2 19  1  0  0  0  0
  2 25  1  0  0  0  0
  3  4  1  0  0  0  0
  3 16  1  0  0  0  0
  3 26  1  0  0  0  0
  3 27  1  0  0  0  0
  4  5  1  0  0  0  0
  4  9  1  0  0  0  0
  4 28  1  0  0  0  0
  5  6  1  0  0  0  0
  5 29  1  0  0  0  0
  5 30  1  0  0  0  0
  6  7  1  0  0  0  0
  6 31  1  0  0  0  0
  6 32  1  0  0  0  0
  7  8  1  0  0  0  0
  7 33  1  0  0  0  0
  7 34  1  0  0  0  0
  8  9  1  0  0  0  0
  8 35  1  0  0  0  0
  8 36  1  0  0  0  0
  9 37  1  0  0  0  0
  9 38  1  0  0  0  0
 10 11  2  0  0  0  0
 10 24  1  0  0  0  0
 10 39  1  0  0  0  0
 11 12  1  0  0  0  0
 11 45  1  0  0  0  0
 12 13  2  0  0  0  0
 12 40  1  0  0  0  0
 13 23  1  0  0  0  0
 13 41  1  0  0  0  0
 14 15  1  0  0  0  0
 15 16  1  0  0  0  0
 15 17  2  0  0  0  0
 17 18  1  0  0  0  0
 17 20  1  0  0  0  0
 19 20  1  0  0  0  0
 19 42  1  0  0  0  0
 20 21  2  0  0  0  0
 22 23  1  0  0  0  0
 22 43  1  0  0  0  0
 23 24  2  0  0  0  0
 24 44  1  0  0  0  0
 45 46  2  0  0  0  0
 45 47  2  0  0  0  0
 45 48  1  0  0  0  0
 48 49  1  0  0  0  0
 48 50  1  0  0  0  0
 50 51  1  0  0  0  0
 50 52  1  0  0  0  0
 50 53  1  0  0  0  0
M  END
$$$$
