p38a_2u
 OpenBabel02232411163D
Structure written by MMmdl.
 64 68  0  0  0  0  0  0  0  0999 V2000
   38.2860   36.5340   17.1800 C   0  0  0  0  0  0  0  0  0  0  0  0
   34.5380   35.0560   21.2860 C   0  0  0  0  0  0  0  0  0  0  0  0
   37.5250   36.0800   18.2550 C   0  0  0  0  0  0  0  0  0  0  0  0
   33.9400   39.1480   23.7980 C   0  0  0  0  0  0  0  0  0  0  0  0
   34.6380   37.9300   21.4280 C   0  0  0  0  0  0  0  0  0  0  0  0
   35.0740   37.2720   20.2280 C   0  0  0  0  0  0  0  0  0  0  0  0
   37.6180   36.6670   15.9560 C   0  0  0  0  0  0  0  0  0  0  0  0
   36.2710   36.3460   15.7740 C   0  0  0  0  0  0  0  0  0  0  0  0
   35.5320   35.8770   16.8650 C   0  0  0  0  0  0  0  0  0  0  0  0
   34.2130   37.1620   22.5530 C   0  0  0  0  0  0  0  0  0  0  0  0
   34.6320   39.3450   21.5680 C   0  0  0  0  0  0  0  0  0  0  0  0
   35.0580   35.9210   20.1900 C   0  0  0  0  0  0  0  0  0  0  0  0
   36.1660   35.7340   18.1030 C   0  0  0  0  0  0  0  0  0  0  0  0
   38.0780   35.9710   19.4550 F   0  0  0  0  0  0  0  0  0  0  0  0
   35.4760   35.0990   19.1440 O   0  0  0  0  0  0  0  0  0  0  0  0
   34.3000   39.9670   22.7080 N   0  0  0  0  0  0  0  0  0  0  0  0
   34.4450   33.8490   21.2120 O   0  0  0  0  0  0  0  0  0  0  0  0
   34.1260   35.7540   22.4750 N   0  0  0  0  0  0  0  0  0  0  0  0
   33.8820   37.7680   23.7370 N   0  0  0  0  0  0  0  0  0  0  0  0
   33.5670   39.7700   24.9670 N   0  0  0  0  0  0  0  0  0  0  0  0
   39.3390   36.8070   17.2960 H   0  0  0  0  0  0  0  0  0  0  0  0
   35.4140   37.8880   19.3920 H   0  0  0  0  0  0  0  0  0  0  0  0
   35.7840   36.4690   14.8040 H   0  0  0  0  0  0  0  0  0  0  0  0
   34.4700   35.6420   16.7460 H   0  0  0  0  0  0  0  0  0  0  0  0
   34.9080   39.9790   20.7090 H   0  0  0  0  0  0  0  0  0  0  0  0
   33.7110   40.7930   25.0690 H   0  0  0  0  0  0  0  0  0  0  0  0
   38.2950   37.1630   14.9220 F   0  0  0  0  0  0  0  0  0  0  0  0
   32.2120   39.0980   28.4750 C   0  0  0  0  0  0  0  0  0  0  0  0
   32.3570   39.7880   27.1130 C   0  0  0  0  0  0  0  0  0  0  0  0
   33.3670   39.0130   26.2420 C   0  0  0  0  0  0  0  0  0  0  0  0
   34.7070   38.8470   26.9920 C   0  0  0  0  0  0  0  0  0  0  0  0
   34.4580   38.2060   28.3630 C   0  0  0  0  0  0  0  0  0  0  0  0
   33.4880   38.9480   29.1370 O   0  0  0  0  0  0  0  0  0  0  0  0
   31.7380   38.0950   28.3640 H   0  0  0  0  0  0  0  0  0  0  0  0
   31.6510   39.7410   29.1920 H   0  0  0  0  0  0  0  0  0  0  0  0
   32.7080   40.8370   27.2610 H   0  0  0  0  0  0  0  0  0  0  0  0
   31.3680   39.8210   26.5970 H   0  0  0  0  0  0  0  0  0  0  0  0
   32.9430   37.9980   25.9960 H   0  0  0  0  0  0  0  0  0  0  0  0
   35.3930   38.1910   26.4030 H   0  0  0  0  0  0  0  0  0  0  0  0
   35.1970   39.8410   27.1180 H   0  0  0  0  0  0  0  0  0  0  0  0
   34.1030   37.1550   28.2500 H   0  0  0  0  0  0  0  0  0  0  0  0
   35.3670   38.2660   29.0040 H   0  0  0  0  0  0  0  0  0  0  0  0
   34.0630   33.3910   25.5490 C   0  0  0  0  0  0  0  0  0  0  0  0
   34.6180   34.0360   24.2550 C   0  0  0  0  0  0  0  0  0  0  0  0
   33.5610   34.9790   23.6510 C   0  0  0  0  0  0  0  0  0  0  0  0
   32.2860   34.2130   23.2360 C   0  0  0  0  0  0  0  0  0  0  0  0
   32.0790   32.9530   24.1060 C   0  0  0  0  0  0  0  0  0  0  0  0
   34.2720   34.0750   26.4170 H   0  0  0  0  0  0  0  0  0  0  0  0
   34.6000   32.4160   25.7010 H   0  0  0  0  0  0  0  0  0  0  0  0
   34.8850   33.2330   23.5260 H   0  0  0  0  0  0  0  0  0  0  0  0
   35.5430   34.6020   24.5150 H   0  0  0  0  0  0  0  0  0  0  0  0
   33.2750   35.7240   24.4530 H   0  0  0  0  0  0  0  0  0  0  0  0
   31.4090   34.8950   23.3510 H   0  0  0  0  0  0  0  0  0  0  0  0
   32.3300   33.8810   22.1710 H   0  0  0  0  0  0  0  0  0  0  0  0
   30.9810   32.7220   24.1360 H   0  0  0  0  0  0  0  0  0  0  0  0
   32.6210   32.0830   23.6440 H   0  0  0  0  0  0  0  0  0  0  0  0
   32.5810   33.1880   25.4920 N   0  0  0  0  0  0  0  0  0  0  0  0
   31.8230   32.3250   26.7740 S   0  0  0  0  0  0  0  0  0  0  0  0
   30.3650   32.4710   26.6000 O   0  0  0  0  0  0  0  0  0  0  0  0
   32.2970   32.8800   28.0560 O   0  0  0  0  0  0  0  0  0  0  0  0
   32.2770   30.6590   26.6330 C   0  0  0  0  0  0  0  0  0  0  0  0
   33.3540   30.4720   26.8820 H   0  0  0  0  0  0  0  0  0  0  0  0
   31.6770   29.9940   27.3070 H   0  0  0  0  0  0  0  0  0  0  0  0
   32.1430   30.2570   25.5920 H   0  0  0  0  0  0  0  0  0  0  0  0
  1  3  2  0  0  0  0
  1  7  1  0  0  0  0
  1 21  1  0  0  0  0
  2 12  1  0  0  0  0
  2 17  2  0  0  0  0
  2 18  1  0  0  0  0
  3 13  1  0  0  0  0
  3 14  1  0  0  0  0
  4 16  2  0  0  0  0
  4 19  1  0  0  0  0
  4 20  1  0  0  0  0
  5  6  1  0  0  0  0
  5 10  1  0  0  0  0
  5 11  2  0  0  0  0
  6 12  2  0  0  0  0
  6 22  1  0  0  0  0
  7  8  2  0  0  0  0
  7 27  1  0  0  0  0
  8  9  1  0  0  0  0
  8 23  1  0  0  0  0
  9 13  2  0  0  0  0
  9 24  1  0  0  0  0
 10 18  1  0  0  0  0
 10 19  2  0  0  0  0
 11 16  1  0  0  0  0
 11 25  1  0  0  0  0
 12 15  1  0  0  0  0
 13 15  1  0  0  0  0
 18 45  1  0  0  0  0
 20 26  1  0  0  0  0
 20 30  1  0  0  0  0
 28 29  1  0  0  0  0
 28 33  1  0  0  0  0
 28 34  1  0  0  0  0
 28 35  1  0  0  0  0
 29 30  1  0  0  0  0
 29 36  1  0  0  0  0
 29 37  1  0  0  0  0
 30 31  1  0  0  0  0
 30 38  1  0  0  0  0
 31 32  1  0  0  0  0
 31 39  1  0  0  0  0
 31 40  1  0  0  0  0
 32 33  1  0  0  0  0
 32 41  1  0  0  0  0
 32 42  1  0  0  0  0
 43 44  1  0  0  0  0
 43 48  1  0  0  0  0
 43 49  1  0  0  0  0
 43 57  1  0  0  0  0
 44 45  1  0  0  0  0
 44 50  1  0  0  0  0
 44 51  1  0  0  0  0
 45 46  1  0  0  0  0
 45 52  1  0  0  0  0
 46 47  1  0  0  0  0
 46 53  1  0  0  0  0
 46 54  1  0  0  0  0
 47 55  1  0  0  0  0
 47 56  1  0  0  0  0
 47 57  1  0  0  0  0
 57 58  1  0  0  0  0
 58 59  2  0  0  0  0
 58 60  2  0  0  0  0
 58 61  1  0  0  0  0
 61 62  1  0  0  0  0
 61 63  1  0  0  0  0
 61 64  1  0  0  0  0
M  END
$$$$
