18639-1
 OpenBabel02232411163D
Structure written by MMmdl.
 48 49  0  0  0  0  0  0  0  0999 V2000
   24.4320   10.9150   30.7610 C   0  0  0  0  0  0  0  0  0  0  0  0
   23.1050   11.2580   30.1170 C   0  0  0  0  0  0  0  0  0  0  0  0
   22.0270   11.3160   31.1270 O   0  0  0  0  0  0  0  0  0  0  0  0
   21.4460   10.1660   31.5370 C   0  0  0  0  0  0  0  0  0  0  0  0
   21.9280    8.9780   31.1040 N   0  0  0  0  0  0  0  0  0  0  0  0
   21.2380    7.8330   31.4740 C   0  0  0  0  0  0  0  0  0  0  0  0
   20.1020    7.8630   32.2740 C   0  0  0  0  0  0  0  0  0  0  0  0
   19.6090    9.1140   32.7340 C   0  0  0  0  0  0  0  0  0  0  0  0
   18.4720    9.1510   33.5010 N   0  0  0  0  0  0  0  0  0  0  0  0
   20.2960   10.3160   32.3690 C   0  0  0  0  0  0  0  0  0  0  0  0
   19.8820   11.6140   32.7370 C   0  0  0  0  0  0  0  0  0  0  0  0
   19.5930   12.7060   32.9990 N   0  0  0  0  0  0  0  0  0  0  0  0
   21.8320    6.6710   30.9280 N   0  0  0  0  0  0  0  0  0  0  0  0
   21.2820    5.3730   30.8920 C   0  0  0  0  0  0  0  0  0  0  0  0
   20.2140    5.0910   31.3920 O   0  0  0  0  0  0  0  0  0  0  0  0
   22.1250    4.3860   30.0920 C   0  0  0  0  0  0  0  0  0  0  0  0
   23.5100    4.1670   30.6270 C   0  0  0  0  0  0  0  0  0  0  0  0
   24.5760    5.0570   30.2800 C   0  0  0  0  0  0  0  0  0  0  0  0
   24.1740    6.0960   29.4510 O   0  0  0  0  0  0  0  0  0  0  0  0
   25.0940    7.2100   29.2720 C   0  0  0  0  0  0  0  0  0  0  0  0
   25.8740    4.8460   30.7190 C   0  0  0  0  0  0  0  0  0  0  0  0
   26.1550    3.7410   31.5500 C   0  0  0  0  0  0  0  0  0  0  0  0
   27.5260    3.5210   32.0150 N   0  3  0  0  0  0  0  0  0  0  0  0
   27.7110    2.7090   32.9090 O   0  5  0  0  0  0  0  0  0  0  0  0
   28.4320    4.1550   31.4860 O   0  0  0  0  0  0  0  0  0  0  0  0
   25.1130    2.8520   31.9050 C   0  0  0  0  0  0  0  0  0  0  0  0
   23.7990    3.0740   31.4280 C   0  0  0  0  0  0  0  0  0  0  0  0
   25.5070    1.8250   32.7090 O   0  0  0  0  0  0  0  0  0  0  0  0
   24.5400    0.7690   32.9830 C   0  0  0  0  0  0  0  0  0  0  0  0
   25.2220   10.8610   29.9700 H   0  0  0  0  0  0  0  0  0  0  0  0
   24.7270   11.6860   31.5030 H   0  0  0  0  0  0  0  0  0  0  0  0
   24.3890    9.9210   31.2650 H   0  0  0  0  0  0  0  0  0  0  0  0
   23.0700   12.3130   29.7530 H   0  0  0  0  0  0  0  0  0  0  0  0
   22.8240   10.5340   29.3190 H   0  0  0  0  0  0  0  0  0  0  0  0
   19.5730    6.9450   32.5370 H   0  0  0  0  0  0  0  0  0  0  0  0
   17.9760    8.2770   33.7600 H   0  0  0  0  0  0  0  0  0  0  0  0
   18.0610   10.0350   33.7990 H   0  0  0  0  0  0  0  0  0  0  0  0
   22.7350    6.8360   30.4130 H   0  0  0  0  0  0  0  0  0  0  0  0
   21.5810    3.4030   30.0600 H   0  0  0  0  0  0  0  0  0  0  0  0
   22.2040    4.7790   29.0380 H   0  0  0  0  0  0  0  0  0  0  0  0
   25.4590    7.5840   30.2520 H   0  0  0  0  0  0  0  0  0  0  0  0
   25.9220    6.8870   28.6050 H   0  0  0  0  0  0  0  0  0  0  0  0
   24.4340    7.9600   28.7760 H   0  0  0  0  0  0  0  0  0  0  0  0
   26.6920    5.5130   30.4200 H   0  0  0  0  0  0  0  0  0  0  0  0
   23.0070    2.3670   31.6860 H   0  0  0  0  0  0  0  0  0  0  0  0
   25.1600    0.0490   33.5690 H   0  0  0  0  0  0  0  0  0  0  0  0
   23.7030    1.1660   33.5970 H   0  0  0  0  0  0  0  0  0  0  0  0
   24.1910    0.3110   32.0320 H   0  0  0  0  0  0  0  0  0  0  0  0
  1  2  1  0  0  0  0
  1 30  1  0  0  0  0
  1 31  1  0  0  0  0
  1 32  1  0  0  0  0
  2  3  1  0  0  0  0
  2 33  1  0  0  0  0
  2 34  1  0  0  0  0
  3  4  1  0  0  0  0
  4 10  2  0  0  0  0
  4  5  1  0  0  0  0
  5  6  2  0  0  0  0
  6  7  1  0  0  0  0
  6 13  1  0  0  0  0
  7  8  2  0  0  0  0
  7 35  1  0  0  0  0
  8  9  1  0  0  0  0
  8 10  1  0  0  0  0
  9 36  1  0  0  0  0
  9 37  1  0  0  0  0
 10 11  1  0  0  0  0
 11 12  3  0  0  0  0
 13 14  1  0  0  0  0
 13 38  1  0  0  0  0
 14 15  2  0  0  0  0
 14 16  1  0  0  0  0
 16 17  1  0  0  0  0
 16 39  1  0  0  0  0
 16 40  1  0  0  0  0
 17 27  2  0  0  0  0
 17 18  1  0  0  0  0
 18 19  1  0  0  0  0
 18 21  2  0  0  0  0
 19 20  1  0  0  0  0
 20 41  1  0  0  0  0
 20 42  1  0  0  0  0
 20 43  1  0  0  0  0
 21 22  1  0  0  0  0
 21 44  1  0  0  0  0
 22 23  1  0  0  0  0
 22 26  2  0  0  0  0
 23 24  1  0  0  0  0
 23 25  2  0  0  0  0
 26 27  1  0  0  0  0
 26 28  1  0  0  0  0
 27 45  1  0  0  0  0
 28 29  1  0  0  0  0
 29 46  1  0  0  0  0
 29 47  1  0  0  0  0
 29 48  1  0  0  0  0
M  CHG  2  23   1  24  -1
M  END
$$$$
