57
 OpenBabel02232411163D
Structure written by MMmdl.
 47 50  0  0  0  0  0  0  0  0999 V2000
    3.3230  -48.1140    7.1010 O   0  0  0  0  0  0  0  0  0  0  0  0
    2.9500  -49.0940    6.4410 C   0  0  0  0  0  0  0  0  0  0  0  0
    3.6710  -49.8690    5.7810 O   0  5  0  0  0  0  0  0  0  0  0  0
    1.4470  -49.4350    6.4070 C   0  0  0  0  0  0  0  0  0  0  0  0
   -0.4130  -50.7640    6.5920 C   0  0  0  0  0  0  0  0  0  0  0  0
   -1.3440  -51.7920    6.8360 C   0  0  0  0  0  0  0  0  0  0  0  0
   -2.6670  -51.5540    6.4970 C   0  0  0  0  0  0  0  0  0  0  0  0
   -3.0720  -50.3220    5.9290 C   0  0  0  0  0  0  0  0  0  0  0  0
   -2.1640  -49.3010    5.6940 C   0  0  0  0  0  0  0  0  0  0  0  0
   -0.8120  -49.4990    6.0280 C   0  0  0  0  0  0  0  0  0  0  0  0
    0.3740  -48.6790    5.9410 C   0  0  0  0  0  0  0  0  0  0  0  0
    0.3590  -47.2730    5.4560 C   0  0  0  0  0  0  0  0  0  0  0  0
    0.3190  -46.2410    6.5980 C   0  0  0  0  0  0  0  0  0  0  0  0
   -0.8410  -46.4080    7.5720 C   0  0  0  0  0  0  0  0  0  0  0  0
   -2.0320  -45.8680    6.8810 O   0  0  0  0  0  0  0  0  0  0  0  0
   -3.2090  -45.8690    7.5680 C   0  0  0  0  0  0  0  0  0  0  0  0
   -5.7240  -45.6340    8.8090 C   0  0  0  0  0  0  0  0  0  0  0  0
   -4.7310  -46.3970    9.3720 C   0  0  0  0  0  0  0  0  0  0  0  0
   -3.4550  -46.5180    8.7650 C   0  0  0  0  0  0  0  0  0  0  0  0
   -1.0480  -52.7430    7.2780 H   0  0  0  0  0  0  0  0  0  0  0  0
   -3.4190  -52.3250    6.6720 H   0  0  0  0  0  0  0  0  0  0  0  0
   -4.1250  -50.1850    5.6770 H   0  0  0  0  0  0  0  0  0  0  0  0
   -2.5000  -48.3570    5.2620 H   0  0  0  0  0  0  0  0  0  0  0  0
   -0.5490  -47.1220    4.8180 H   0  0  0  0  0  0  0  0  0  0  0  0
    1.2650  -47.0630    4.8370 H   0  0  0  0  0  0  0  0  0  0  0  0
    1.2590  -46.3330    7.1990 H   0  0  0  0  0  0  0  0  0  0  0  0
    0.2620  -45.2180    6.1590 H   0  0  0  0  0  0  0  0  0  0  0  0
   -0.7070  -45.7710    8.4730 H   0  0  0  0  0  0  0  0  0  0  0  0
   -1.0560  -47.4710    7.8050 H   0  0  0  0  0  0  0  0  0  0  0  0
   -2.7190  -47.1370    9.2650 H   0  0  0  0  0  0  0  0  0  0  0  0
   -5.5050  -44.9820    7.5560 C   0  0  0  0  0  0  0  0  0  0  0  0
   -4.2440  -45.0990    6.9130 C   0  0  0  0  0  0  0  0  0  0  0  0
   -4.0450  -44.4920    5.6400 C   0  0  0  0  0  0  0  0  0  0  0  0
   -5.0550  -43.7770    5.0400 C   0  0  0  0  0  0  0  0  0  0  0  0
   -6.3170  -43.6570    5.6810 C   0  0  0  0  0  0  0  0  0  0  0  0
   -6.5400  -44.2420    6.9040 C   0  0  0  0  0  0  0  0  0  0  0  0
   -3.0860  -44.6260    5.1380 H   0  0  0  0  0  0  0  0  0  0  0  0
   -4.9050  -43.3030    4.0730 H   0  0  0  0  0  0  0  0  0  0  0  0
   -7.1060  -43.0970    5.1830 H   0  0  0  0  0  0  0  0  0  0  0  0
   -7.5130  -44.1600    7.3890 H   0  0  0  0  0  0  0  0  0  0  0  0
   -4.9150  -46.9320   10.3070 H   0  0  0  0  0  0  0  0  0  0  0  0
   -6.6950  -45.5340    9.2930 H   0  0  0  0  0  0  0  0  0  0  0  0
    1.7180  -51.7710    7.4810 C   0  0  0  0  0  0  0  0  0  0  0  0
    1.4370  -52.7760    7.0570 H   0  0  0  0  0  0  0  0  0  0  0  0
    2.8260  -51.6460    7.3690 H   0  0  0  0  0  0  0  0  0  0  0  0
    1.4620  -51.7870    8.5780 H   0  0  0  0  0  0  0  0  0  0  0  0
    0.9770  -50.7040    6.7960 N   0  0  0  0  0  0  0  0  0  0  0  0
  1  2  2  0  0  0  0
  2  3  1  0  0  0  0
  2  4  1  0  0  0  0
  4 11  2  0  0  0  0
  4 47  1  0  0  0  0
  5  6  2  0  0  0  0
  5 10  1  0  0  0  0
  5 47  1  0  0  0  0
  6  7  1  0  0  0  0
  6 20  1  0  0  0  0
  7  8  2  0  0  0  0
  7 21  1  0  0  0  0
  8  9  1  0  0  0  0
  8 22  1  0  0  0  0
  9 10  2  0  0  0  0
  9 23  1  0  0  0  0
 10 11  1  0  0  0  0
 11 12  1  0  0  0  0
 12 24  1  0  0  0  0
 12 25  1  0  0  0  0
 12 13  1  0  0  0  0
 13 14  1  0  0  0  0
 13 26  1  0  0  0  0
 13 27  1  0  0  0  0
 14 15  1  0  0  0  0
 14 28  1  0  0  0  0
 14 29  1  0  0  0  0
 15 16  1  0  0  0  0
 16 19  2  0  0  0  0
 16 32  1  0  0  0  0
 17 18  2  0  0  0  0
 17 31  1  0  0  0  0
 17 42  1  0  0  0  0
 18 19  1  0  0  0  0
 18 41  1  0  0  0  0
 19 30  1  0  0  0  0
 31 32  2  0  0  0  0
 31 36  1  0  0  0  0
 32 33  1  0  0  0  0
 33 34  2  0  0  0  0
 33 37  1  0  0  0  0
 34 35  1  0  0  0  0
 34 38  1  0  0  0  0
 35 36  2  0  0  0  0
 35 39  1  0  0  0  0
 36 40  1  0  0  0  0
 43 44  1  0  0  0  0
 43 45  1  0  0  0  0
 43 46  1  0  0  0  0
 43 47  1  0  0  0  0
M  CHG  1   3  -1
M  END
$$$$
