48 flip
                    3D
 Schrodinger Suite 2022-3.
 42 45  0  0  1  0  0  0  0  0999 V2000
    3.3230  -48.2110    7.2260 O   0  0  0  0  0  0  0  0  0  0  0  0
    2.9470  -49.1590    6.5250 C   0  0  0  0  0  0  0  0  0  0  0  0
    3.6670  -49.9360    5.8690 O   0  5  0  0  0  0  0  0  0  0  0  0
    1.4380  -49.4620    6.4510 C   0  0  0  0  0  0  0  0  0  0  0  0
   -0.4070  -50.8120    6.5840 C   0  0  0  0  0  0  0  0  0  0  0  0
   -1.3160  -51.8650    6.7830 C   0  0  0  0  0  0  0  0  0  0  0  0
   -2.6490  -51.6230    6.4850 C   0  0  0  0  0  0  0  0  0  0  0  0
   -3.0750  -50.3660    5.9950 C   0  0  0  0  0  0  0  0  0  0  0  0
   -2.1810  -49.3220    5.7960 C   0  0  0  0  0  0  0  0  0  0  0  0
   -0.8230  -49.5200    6.0960 C   0  0  0  0  0  0  0  0  0  0  0  0
    0.3600  -48.6870    6.0390 C   0  0  0  0  0  0  0  0  0  0  0  0
    0.3510  -47.2620    5.6160 C   0  0  0  0  0  0  0  0  0  0  0  0
    0.1960  -46.2880    6.7990 C   0  0  0  0  0  0  0  0  0  0  0  0
   -1.1740  -46.3550    7.4760 C   0  0  0  0  0  0  0  0  0  0  0  0
   -2.0500  -45.6880    6.4980 O   0  0  0  0  0  0  0  0  0  0  0  0
   -3.3220  -45.3480    6.8230 C   0  0  0  0  0  0  0  0  0  0  0  0
   -5.9940  -44.3770    7.1570 C   0  0  0  0  0  0  0  0  0  0  0  0
   -5.2250  -44.0120    6.0610 C   0  0  0  0  0  0  0  0  0  0  0  0
   -3.9130  -44.4830    5.8860 C   0  0  0  0  0  0  0  0  0  0  0  0
   -0.9940  -52.8350    7.1610 H   0  0  0  0  0  0  0  0  0  0  0  0
   -3.3900  -52.4090    6.6310 H   0  0  0  0  0  0  0  0  0  0  0  0
   -4.1340  -50.2240    5.7740 H   0  0  0  0  0  0  0  0  0  0  0  0
   -2.5390  -48.3650    5.4150 H   0  0  0  0  0  0  0  0  0  0  0  0
   -0.5090  -47.0970    4.9150 H   0  0  0  0  0  0  0  0  0  0  0  0
    1.2950  -47.0060    5.0770 H   0  0  0  0  0  0  0  0  0  0  0  0
    0.3360  -45.2450    6.4260 H   0  0  0  0  0  0  0  0  0  0  0  0
    0.9710  -46.5120    7.5690 H   0  0  0  0  0  0  0  0  0  0  0  0
   -1.2070  -45.7620    8.4130 H   0  0  0  0  0  0  0  0  0  0  0  0
   -1.5510  -47.3920    7.5960 H   0  0  0  0  0  0  0  0  0  0  0  0
   -3.3510  -44.1700    5.0110 H   0  0  0  0  0  0  0  0  0  0  0  0
   -5.6480  -43.3410    5.3100 H   0  0  0  0  0  0  0  0  0  0  0  0
   -7.0070  -44.0150    7.2930 H   0  0  0  0  0  0  0  0  0  0  0  0
    0.9800  -50.7490    6.7970 N   0  0  0  0  0  0  0  0  0  0  0  0
    1.5320  -51.5360    7.1170 H   0  0  0  0  0  0  0  0  0  0  0  0
   -5.0410  -46.7530    9.7740 C   0  0  0  0  0  0  0  0  0  0  0  0
   -5.9730  -45.8300    9.2290 N   0  0  0  0  0  0  0  0  0  0  0  0
   -5.4080  -45.2650    8.0780 C   0  0  0  0  0  0  0  0  0  0  0  0
   -4.0700  -45.7820    7.9450 C   0  0  0  0  0  0  0  0  0  0  0  0
   -3.8800  -46.7140    9.0300 C   0  0  0  0  0  0  0  0  0  0  0  0
   -6.9300  -45.7390    9.5240 H   0  0  0  0  0  0  0  0  0  0  0  0
   -3.0050  -47.3030    9.2250 H   0  0  0  0  0  0  0  0  0  0  0  0
   -5.3010  -47.3590   10.6240 H   0  0  0  0  0  0  0  0  0  0  0  0
  1  2  2  0  0  0  0
  2  3  1  0  0  0  0
  2  4  1  0  0  0  0
  4 11  2  0  0  0  0
  4 33  1  0  0  0  0
  5  6  1  0  0  0  0
  5 10  2  0  0  0  0
  5 33  1  0  0  0  0
  6  7  2  0  0  0  0
  6 20  1  0  0  0  0
  7  8  1  0  0  0  0
  7 21  1  0  0  0  0
  8  9  2  0  0  0  0
  8 22  1  0  0  0  0
  9 10  1  0  0  0  0
  9 23  1  0  0  0  0
 10 11  1  0  0  0  0
 11 12  1  0  0  0  0
 12 24  1  0  0  0  0
 12 25  1  0  0  0  0
 12 13  1  0  0  0  0
 13 14  1  0  0  0  0
 13 26  1  0  0  0  0
 13 27  1  0  0  0  0
 14 15  1  0  0  0  0
 14 28  1  0  0  0  0
 14 29  1  0  0  0  0
 15 16  1  0  0  0  0
 16 19  2  0  0  0  0
 16 38  1  0  0  0  0
 17 18  2  0  0  0  0
 17 32  1  0  0  0  0
 17 37  1  0  0  0  0
 18 19  1  0  0  0  0
 18 31  1  0  0  0  0
 19 30  1  0  0  0  0
 33 34  1  0  0  0  0
 35 36  1  0  0  0  0
 35 39  2  0  0  0  0
 35 42  1  0  0  0  0
 36 37  1  0  0  0  0
 36 40  1  0  0  0  0
 37 38  2  0  0  0  0
 38 39  1  0  0  0  0
 39 41  1  0  0  0  0
M  CHG  1   3  -1
M  END
$$$$
