p38a_3fln
 OpenBabel02232411163D
Structure written by MMmdl.
 46 49  0  0  0  0  0  0  0  0999 V2000
   34.2020   38.2480   26.9590 C   0  0  0  0  0  0  0  0  0  0  0  0
   33.6120   37.7590   28.2880 C   0  0  0  0  0  0  0  0  0  0  0  0
   31.3530   38.2240   27.5610 C   0  0  0  0  0  0  0  0  0  0  0  0
   31.8350   38.7300   26.1950 C   0  0  0  0  0  0  0  0  0  0  0  0
   36.3590   36.0120   15.8460 C   0  0  0  0  0  0  0  0  0  0  0  0
   32.2660   37.2570   28.1270 O   0  0  0  0  0  0  0  0  0  0  0  0
   34.5140   35.0390   21.3880 C   0  0  0  0  0  0  0  0  0  0  0  0
   35.6830   35.5490   16.9700 C   0  0  0  0  0  0  0  0  0  0  0  0
   34.0340   39.1560   23.8860 C   0  0  0  0  0  0  0  0  0  0  0  0
   33.2630   39.2980   26.3360 C   0  0  0  0  0  0  0  0  0  0  0  0
   34.7490   37.9010   21.5320 C   0  0  0  0  0  0  0  0  0  0  0  0
   35.1970   37.2180   20.3490 C   0  0  0  0  0  0  0  0  0  0  0  0
   37.6500   36.5130   16.0550 C   0  0  0  0  0  0  0  0  0  0  0  0
   38.2770   36.5270   17.3040 C   0  0  0  0  0  0  0  0  0  0  0  0
   37.5640   36.0900   18.4260 C   0  0  0  0  0  0  0  0  0  0  0  0
   34.2920   37.1620   22.6640 C   0  0  0  0  0  0  0  0  0  0  0  0
   34.7500   39.3170   21.6520 C   0  0  0  0  0  0  0  0  0  0  0  0
   35.1140   35.8690   20.3080 C   0  0  0  0  0  0  0  0  0  0  0  0
   36.2650   35.6030   18.2540 C   0  0  0  0  0  0  0  0  0  0  0  0
   33.7240   35.0040   23.7840 C   0  0  0  0  0  0  0  0  0  0  0  0
   34.4690   35.0280   16.8590 F   0  0  0  0  0  0  0  0  0  0  0  0
   38.2950   37.0330   15.0130 F   0  0  0  0  0  0  0  0  0  0  0  0
   35.5130   35.0160   19.2790 O   0  0  0  0  0  0  0  0  0  0  0  0
   34.4060   39.9530   22.7790 N   0  0  0  0  0  0  0  0  0  0  0  0
   34.2890   33.8510   21.3160 O   0  0  0  0  0  0  0  0  0  0  0  0
   34.1860   35.7630   22.5880 N   0  0  0  0  0  0  0  0  0  0  0  0
   33.9370   37.7800   23.8390 N   0  0  0  0  0  0  0  0  0  0  0  0
   33.7940   39.8420   25.0520 N   0  0  0  0  0  0  0  0  0  0  0  0
   35.2070   38.6990   27.1400 H   0  0  0  0  0  0  0  0  0  0  0  0
   34.3260   37.3800   26.2660 H   0  0  0  0  0  0  0  0  0  0  0  0
   34.1570   36.8610   28.6620 H   0  0  0  0  0  0  0  0  0  0  0  0
   33.6050   38.5760   29.0470 H   0  0  0  0  0  0  0  0  0  0  0  0
   31.2330   39.0650   28.2810 H   0  0  0  0  0  0  0  0  0  0  0  0
   30.4140   37.6320   27.4640 H   0  0  0  0  0  0  0  0  0  0  0  0
   31.8290   37.8870   25.4620 H   0  0  0  0  0  0  0  0  0  0  0  0
   31.1450   39.5240   25.8240 H   0  0  0  0  0  0  0  0  0  0  0  0
   35.8990   36.0100   14.8540 H   0  0  0  0  0  0  0  0  0  0  0  0
   33.2270   40.2010   27.0190 H   0  0  0  0  0  0  0  0  0  0  0  0
   35.6030   37.8190   19.5310 H   0  0  0  0  0  0  0  0  0  0  0  0
   39.2980   36.9030   17.4120 H   0  0  0  0  0  0  0  0  0  0  0  0
   38.0190   36.1540   19.4160 H   0  0  0  0  0  0  0  0  0  0  0  0
   35.0340   39.9390   20.7880 H   0  0  0  0  0  0  0  0  0  0  0  0
   34.4230   35.1890   24.6440 H   0  0  0  0  0  0  0  0  0  0  0  0
   32.6960   35.3440   24.0810 H   0  0  0  0  0  0  0  0  0  0  0  0
   33.7000   33.9050   23.5600 H   0  0  0  0  0  0  0  0  0  0  0  0
   33.8170   40.8830   25.0260 H   0  0  0  0  0  0  0  0  0  0  0  0
  1  2  1  0  0  0  0
  1 10  1  0  0  0  0
  1 29  1  0  0  0  0
  1 30  1  0  0  0  0
  2  6  1  0  0  0  0
  2 31  1  0  0  0  0
  2 32  1  0  0  0  0
  3  4  1  0  0  0  0
  3  6  1  0  0  0  0
  3 33  1  0  0  0  0
  3 34  1  0  0  0  0
  4 10  1  0  0  0  0
  4 35  1  0  0  0  0
  4 36  1  0  0  0  0
  5  8  2  0  0  0  0
  5 13  1  0  0  0  0
  5 37  1  0  0  0  0
  7 18  1  0  0  0  0
  7 25  2  0  0  0  0
  7 26  1  0  0  0  0
  8 19  1  0  0  0  0
  8 21  1  0  0  0  0
  9 24  2  0  0  0  0
  9 27  1  0  0  0  0
  9 28  1  0  0  0  0
 10 28  1  0  0  0  0
 10 38  1  0  0  0  0
 11 12  1  0  0  0  0
 11 16  1  0  0  0  0
 11 17  2  0  0  0  0
 12 18  2  0  0  0  0
 12 39  1  0  0  0  0
 13 14  2  0  0  0  0
 13 22  1  0  0  0  0
 14 15  1  0  0  0  0
 14 40  1  0  0  0  0
 15 19  2  0  0  0  0
 15 41  1  0  0  0  0
 16 26  1  0  0  0  0
 16 27  2  0  0  0  0
 17 24  1  0  0  0  0
 17 42  1  0  0  0  0
 18 23  1  0  0  0  0
 19 23  1  0  0  0  0
 20 26  1  0  0  0  0
 20 43  1  0  0  0  0
 20 44  1  0  0  0  0
 20 45  1  0  0  0  0
 28 46  1  0  0  0  0
M  END
$$$$
