26.pdb
 OpenBabel02232411163D

 43 46  0  0  0  0  0  0  0  0999 V2000
    3.6220  -50.1990    6.2930 O   0  5  0  0  0  0  0  0  0  0  0  0
    2.9680  -49.1980    6.6210 C   0  0  0  0  0  0  0  0  0  0  0  0
    3.3740  -48.1420    7.1160 O   0  0  0  0  0  0  0  0  0  0  0  0
    1.4410  -49.3410    6.3970 C   0  0  0  0  0  0  0  0  0  0  0  0
    1.0180  -50.6530    6.7130 O   0  0  0  0  0  0  0  0  0  0  0  0
   -0.3610  -50.6770    6.4890 C   0  0  0  0  0  0  0  0  0  0  0  0
   -1.2130  -51.7570    6.6990 C   0  0  0  0  0  0  0  0  0  0  0  0
   -0.8760  -52.7250    7.0690 H   0  0  0  0  0  0  0  0  0  0  0  0
   -2.5630  -51.5370    6.4150 C   0  0  0  0  0  0  0  0  0  0  0  0
   -3.2850  -52.3410    6.5690 H   0  0  0  0  0  0  0  0  0  0  0  0
   -3.0200  -50.2940    5.9390 C   0  0  0  0  0  0  0  0  0  0  0  0
   -4.0840  -50.1680    5.7280 H   0  0  0  0  0  0  0  0  0  0  0  0
   -2.1520  -49.2200    5.7330 C   0  0  0  0  0  0  0  0  0  0  0  0
   -2.5360  -48.2650    5.3690 H   0  0  0  0  0  0  0  0  0  0  0  0
   -0.7950  -49.4010    6.0150 C   0  0  0  0  0  0  0  0  0  0  0  0
    0.3950  -48.5610    5.9750 C   0  0  0  0  0  0  0  0  0  0  0  0
    0.3870  -47.1410    5.5400 C   0  0  0  0  0  0  0  0  0  0  0  0
    1.3340  -46.8890    5.0020 H   0  0  0  0  0  0  0  0  0  0  0  0
   -0.4770  -46.9930    4.8400 H   0  0  0  0  0  0  0  0  0  0  0  0
    0.2210  -46.1510    6.7090 C   0  0  0  0  0  0  0  0  0  0  0  0
    0.3050  -45.1120    6.3140 H   0  0  0  0  0  0  0  0  0  0  0  0
    1.0270  -46.3260    7.4620 H   0  0  0  0  0  0  0  0  0  0  0  0
   -1.1230  -46.2910    7.4280 C   0  0  0  0  0  0  0  0  0  0  0  0
   -1.2270  -45.5740    8.2670 H   0  0  0  0  0  0  0  0  0  0  0  0
   -1.3150  -47.3480    7.7090 H   0  0  0  0  0  0  0  0  0  0  0  0
   -2.1250  -45.9660    6.4030 O   0  0  0  0  0  0  0  0  0  0  0  0
   -3.3420  -45.4410    6.7370 C   0  0  0  0  0  0  0  0  0  0  0  0
   -4.1450  -45.7820    7.8850 C   0  0  0  0  0  0  0  0  0  0  0  0
   -5.3930  -45.1050    8.0270 C   0  0  0  0  0  0  0  0  0  0  0  0
   -5.8560  -44.2080    7.0190 C   0  0  0  0  0  0  0  0  0  0  0  0
   -6.8330  -43.7400    7.1360 H   0  0  0  0  0  0  0  0  0  0  0  0
   -5.0860  -43.9600    5.9080 C   0  0  0  0  0  0  0  0  0  0  0  0
   -5.4390  -43.2880    5.1240 H   0  0  0  0  0  0  0  0  0  0  0  0
   -3.8180  -44.5640    5.7690 C   0  0  0  0  0  0  0  0  0  0  0  0
   -3.2180  -44.3390    4.8950 H   0  0  0  0  0  0  0  0  0  0  0  0
   -6.2090  -45.3640    9.1760 C   0  0  0  0  0  0  0  0  0  0  0  0
   -7.1440  -44.8170    9.2870 H   0  0  0  0  0  0  0  0  0  0  0  0
   -5.8320  -46.3010   10.1020 C   0  0  0  0  0  0  0  0  0  0  0  0
   -6.4580  -46.5040   10.9680 H   0  0  0  0  0  0  0  0  0  0  0  0
   -4.6350  -47.0460    9.9160 C   0  0  0  0  0  0  0  0  0  0  0  0
   -4.3960  -47.8370   10.6280 H   0  0  0  0  0  0  0  0  0  0  0  0
   -3.8220  -46.7940    8.8390 C   0  0  0  0  0  0  0  0  0  0  0  0
   -2.9420  -47.4190    8.6950 H   0  0  0  0  0  0  0  0  0  0  0  0
  1  2  1  0  0  0  0
  2  3  2  0  0  0  0
  4  2  1  0  0  0  0
  4  5  1  0  0  0  0
  6  7  1  0  0  0  0
  6  5  1  0  0  0  0
  7  8  1  0  0  0  0
  9 10  1  0  0  0  0
  9  7  2  0  0  0  0
 11  9  1  0  0  0  0
 12 11  1  0  0  0  0
 13 11  2  0  0  0  0
 13 15  1  0  0  0  0
 14 13  1  0  0  0  0
 15  6  2  0  0  0  0
 16 15  1  0  0  0  0
 16  4  2  0  0  0  0
 17 16  1  0  0  0  0
 17 20  1  0  0  0  0
 18 17  1  0  0  0  0
 19 17  1  0  0  0  0
 20 22  1  0  0  0  0
 20 23  1  0  0  0  0
 21 20  1  0  0  0  0
 23 25  1  0  0  0  0
 23 24  1  0  0  0  0
 26 23  1  0  0  0  0
 26 27  1  0  0  0  0
 27 34  1  0  0  0  0
 28 27  2  0  0  0  0
 28 29  1  0  0  0  0
 29 30  2  0  0  0  0
 30 32  1  0  0  0  0
 30 31  1  0  0  0  0
 32 33  1  0  0  0  0
 34 35  1  0  0  0  0
 34 32  2  0  0  0  0
 36 29  1  0  0  0  0
 36 37  1  0  0  0  0
 38 36  2  0  0  0  0
 39 38  1  0  0  0  0
 40 42  2  0  0  0  0
 40 38  1  0  0  0  0
 41 40  1  0  0  0  0
 42 28  1  0  0  0  0
 43 42  1  0  0  0  0
M  CHG  1   1  -1
M  END
$$$$
