18652-1
 OpenBabel02232411163D
Structure written by MMmdl.
 55 56  0  0  0  0  0  0  0  0999 V2000
   23.2450   10.4870   28.9580 C   0  0  0  0  0  0  0  0  0  0  0  0
   23.6050   10.9290   30.3670 C   0  0  0  0  0  0  0  0  0  0  0  0
   24.1340   12.3560   30.4360 C   0  0  0  0  0  0  0  0  0  0  0  0
   22.3560   11.0400   31.1920 O   0  0  0  0  0  0  0  0  0  0  0  0
   21.7100    9.9280   31.5890 C   0  0  0  0  0  0  0  0  0  0  0  0
   22.1790    8.7110   31.2140 N   0  0  0  0  0  0  0  0  0  0  0  0
   21.4250    7.6030   31.5570 C   0  0  0  0  0  0  0  0  0  0  0  0
   20.2580    7.6870   32.3100 C   0  0  0  0  0  0  0  0  0  0  0  0
   19.7880    8.9610   32.7280 C   0  0  0  0  0  0  0  0  0  0  0  0
   18.6210    9.0450   33.4470 N   0  0  0  0  0  0  0  0  0  0  0  0
   20.5300   10.1310   32.3670 C   0  0  0  0  0  0  0  0  0  0  0  0
   20.1450   11.4460   32.7050 C   0  0  0  0  0  0  0  0  0  0  0  0
   19.8740   12.5470   32.9500 N   0  0  0  0  0  0  0  0  0  0  0  0
   21.9660    6.4030   31.0270 N   0  0  0  0  0  0  0  0  0  0  0  0
   21.2680    5.1820   30.9130 C   0  0  0  0  0  0  0  0  0  0  0  0
   20.1820    4.9950   31.4200 O   0  0  0  0  0  0  0  0  0  0  0  0
   21.9480    4.1560   30.0210 C   0  0  0  0  0  0  0  0  0  0  0  0
   23.3170    3.7170   30.4490 C   0  0  0  0  0  0  0  0  0  0  0  0
   24.4710    4.4120   29.9830 C   0  0  0  0  0  0  0  0  0  0  0  0
   24.1550    5.5460   29.2410 O   0  0  0  0  0  0  0  0  0  0  0  0
   25.2000    6.5450   29.0830 C   0  0  0  0  0  0  0  0  0  0  0  0
   25.7550    3.9280   30.2120 C   0  0  0  0  0  0  0  0  0  0  0  0
   25.9470    2.7610   30.9730 C   0  0  0  0  0  0  0  0  0  0  0  0
   27.5800    2.1400   31.1260 S   0  0  0  0  0  0  0  0  0  0  0  0
   27.6890    1.3600   32.3810 O   0  0  0  0  0  0  0  0  0  0  0  0
   28.5600    3.2540   31.1150 O   0  0  0  0  0  0  0  0  0  0  0  0
   27.7720    1.1260   29.7310 C   0  0  0  0  0  0  0  0  0  0  0  0
   24.8180    2.1230   31.5070 C   0  0  0  0  0  0  0  0  0  0  0  0
   23.5060    2.5840   31.2240 C   0  0  0  0  0  0  0  0  0  0  0  0
   25.0810    1.0600   32.3340 O   0  0  0  0  0  0  0  0  0  0  0  0
   23.9900    0.1440   32.6350 C   0  0  0  0  0  0  0  0  0  0  0  0
   22.8490    9.4450   28.9500 H   0  0  0  0  0  0  0  0  0  0  0  0
   22.4870   11.1630   28.5030 H   0  0  0  0  0  0  0  0  0  0  0  0
   24.1600   10.5150   28.3190 H   0  0  0  0  0  0  0  0  0  0  0  0
   24.2770   10.2010   30.8760 H   0  0  0  0  0  0  0  0  0  0  0  0
   24.4370   12.6230   31.4700 H   0  0  0  0  0  0  0  0  0  0  0  0
   25.0250   12.4420   29.7670 H   0  0  0  0  0  0  0  0  0  0  0  0
   23.3670   13.0850   30.0860 H   0  0  0  0  0  0  0  0  0  0  0  0
   19.6830    6.7940   32.5650 H   0  0  0  0  0  0  0  0  0  0  0  0
   18.1070    8.1910   33.7320 H   0  0  0  0  0  0  0  0  0  0  0  0
   18.2350    9.9450   33.7340 H   0  0  0  0  0  0  0  0  0  0  0  0
   22.8830    6.4940   30.5310 H   0  0  0  0  0  0  0  0  0  0  0  0
   21.2860    3.2530   29.9520 H   0  0  0  0  0  0  0  0  0  0  0  0
   22.0240    4.6170   28.9940 H   0  0  0  0  0  0  0  0  0  0  0  0
   25.9260    6.1900   28.3220 H   0  0  0  0  0  0  0  0  0  0  0  0
   24.6170    7.4220   28.7190 H   0  0  0  0  0  0  0  0  0  0  0  0
   25.6860    6.7620   30.0590 H   0  0  0  0  0  0  0  0  0  0  0  0
   26.6140    4.4500   29.7740 H   0  0  0  0  0  0  0  0  0  0  0  0
   27.7030    1.7100   28.7740 H   0  0  0  0  0  0  0  0  0  0  0  0
   28.7620    0.6000   29.7100 H   0  0  0  0  0  0  0  0  0  0  0  0
   26.9840    0.3320   29.6670 H   0  0  0  0  0  0  0  0  0  0  0  0
   22.6420    2.0340   31.5990 H   0  0  0  0  0  0  0  0  0  0  0  0
   23.2300    0.6400   33.2750 H   0  0  0  0  0  0  0  0  0  0  0  0
   23.5610   -0.2530   31.6890 H   0  0  0  0  0  0  0  0  0  0  0  0
   24.5210   -0.6610   33.1980 H   0  0  0  0  0  0  0  0  0  0  0  0
  1  2  1  0  0  0  0
  1 32  1  0  0  0  0
  1 33  1  0  0  0  0
  1 34  1  0  0  0  0
  2  3  1  0  0  0  0
  2  4  1  0  0  0  0
  2 35  1  0  0  0  0
  3 36  1  0  0  0  0
  3 37  1  0  0  0  0
  3 38  1  0  0  0  0
  4  5  1  0  0  0  0
  5 11  2  0  0  0  0
  5  6  1  0  0  0  0
  6  7  2  0  0  0  0
  7  8  1  0  0  0  0
  7 14  1  0  0  0  0
  8  9  2  0  0  0  0
  8 39  1  0  0  0  0
  9 10  1  0  0  0  0
  9 11  1  0  0  0  0
 10 40  1  0  0  0  0
 10 41  1  0  0  0  0
 11 12  1  0  0  0  0
 12 13  3  0  0  0  0
 14 15  1  0  0  0  0
 14 42  1  0  0  0  0
 15 16  2  0  0  0  0
 15 17  1  0  0  0  0
 17 18  1  0  0  0  0
 17 43  1  0  0  0  0
 17 44  1  0  0  0  0
 18 29  2  0  0  0  0
 18 19  1  0  0  0  0
 19 20  1  0  0  0  0
 19 22  2  0  0  0  0
 20 21  1  0  0  0  0
 21 45  1  0  0  0  0
 21 46  1  0  0  0  0
 21 47  1  0  0  0  0
 22 23  1  0  0  0  0
 22 48  1  0  0  0  0
 23 24  1  0  0  0  0
 23 28  2  0  0  0  0
 24 25  2  0  0  0  0
 24 26  2  0  0  0  0
 24 27  1  0  0  0  0
 27 49  1  0  0  0  0
 27 50  1  0  0  0  0
 27 51  1  0  0  0  0
 28 29  1  0  0  0  0
 28 30  1  0  0  0  0
 29 52  1  0  0  0  0
 30 31  1  0  0  0  0
 31 53  1  0  0  0  0
 31 54  1  0  0  0  0
 31 55  1  0  0  0  0
M  END
$$$$
