18638-1
 OpenBabel02232411163D
Structure written by MMmdl.
 52 53  0  0  0  0  0  0  0  0999 V2000
   24.0570   12.4530   30.3270 C   0  0  0  0  0  0  0  0  0  0  0  0
   23.6050   11.0110   30.4610 C   0  0  0  0  0  0  0  0  0  0  0  0
   22.3350   11.1310   31.2230 O   0  0  0  0  0  0  0  0  0  0  0  0
   21.6960   10.0020   31.5930 C   0  0  0  0  0  0  0  0  0  0  0  0
   22.1770    8.8000   31.1890 N   0  0  0  0  0  0  0  0  0  0  0  0
   21.4420    7.6770   31.5310 C   0  0  0  0  0  0  0  0  0  0  0  0
   20.2790    7.7410   32.2930 C   0  0  0  0  0  0  0  0  0  0  0  0
   19.7870    9.0030   32.7200 C   0  0  0  0  0  0  0  0  0  0  0  0
   18.6220    9.0660   33.4430 N   0  0  0  0  0  0  0  0  0  0  0  0
   20.5100   10.1860   32.3650 C   0  0  0  0  0  0  0  0  0  0  0  0
   20.1010   11.4940   32.7030 C   0  0  0  0  0  0  0  0  0  0  0  0
   19.8110   12.5910   32.9460 N   0  0  0  0  0  0  0  0  0  0  0  0
   21.9870    6.4830   30.9940 N   0  0  0  0  0  0  0  0  0  0  0  0
   21.2920    5.2580   30.8880 C   0  0  0  0  0  0  0  0  0  0  0  0
   20.2120    5.0710   31.4080 O   0  0  0  0  0  0  0  0  0  0  0  0
   21.9630    4.2300   29.9920 C   0  0  0  0  0  0  0  0  0  0  0  0
   23.3220    3.7690   30.4250 C   0  0  0  0  0  0  0  0  0  0  0  0
   24.4880    4.4480   29.9640 C   0  0  0  0  0  0  0  0  0  0  0  0
   24.1910    5.5850   29.2200 O   0  0  0  0  0  0  0  0  0  0  0  0
   25.2480    6.5710   29.0690 C   0  0  0  0  0  0  0  0  0  0  0  0
   25.7640    3.9440   30.1980 C   0  0  0  0  0  0  0  0  0  0  0  0
   25.9350    2.7740   30.9600 C   0  0  0  0  0  0  0  0  0  0  0  0
   27.5600    2.1300   31.1190 S   0  0  0  0  0  0  0  0  0  0  0  0
   28.5500    3.2350   31.1460 O   0  0  0  0  0  0  0  0  0  0  0  0
   27.6440    1.3230   32.3580 O   0  0  0  0  0  0  0  0  0  0  0  0
   27.7600    1.1460   29.7040 C   0  0  0  0  0  0  0  0  0  0  0  0
   24.7950    2.1520   31.4880 C   0  0  0  0  0  0  0  0  0  0  0  0
   23.4920    2.6320   31.1980 C   0  0  0  0  0  0  0  0  0  0  0  0
   25.0390    1.0860   32.3160 O   0  0  0  0  0  0  0  0  0  0  0  0
   23.9330    0.1840   32.6080 C   0  0  0  0  0  0  0  0  0  0  0  0
   24.9780   12.4810   29.6910 H   0  0  0  0  0  0  0  0  0  0  0  0
   23.2750   13.0720   29.8280 H   0  0  0  0  0  0  0  0  0  0  0  0
   24.2910   12.9000   31.3180 H   0  0  0  0  0  0  0  0  0  0  0  0
   23.3650   10.5470   29.4780 H   0  0  0  0  0  0  0  0  0  0  0  0
   24.3140   10.3930   31.0560 H   0  0  0  0  0  0  0  0  0  0  0  0
   19.7230    6.8370   32.5530 H   0  0  0  0  0  0  0  0  0  0  0  0
   18.1140    8.2030   33.7150 H   0  0  0  0  0  0  0  0  0  0  0  0
   18.2220    9.9600   33.7310 H   0  0  0  0  0  0  0  0  0  0  0  0
   22.9020    6.5740   30.4930 H   0  0  0  0  0  0  0  0  0  0  0  0
   21.2870    3.3370   29.9170 H   0  0  0  0  0  0  0  0  0  0  0  0
   22.0510    4.6950   28.9680 H   0  0  0  0  0  0  0  0  0  0  0  0
   24.6790    7.4530   28.6940 H   0  0  0  0  0  0  0  0  0  0  0  0
   25.7250    6.7880   30.0490 H   0  0  0  0  0  0  0  0  0  0  0  0
   25.9800    6.2060   28.3180 H   0  0  0  0  0  0  0  0  0  0  0  0
   26.6330    4.4540   29.7650 H   0  0  0  0  0  0  0  0  0  0  0  0
   27.7030    1.7490   28.7590 H   0  0  0  0  0  0  0  0  0  0  0  0
   28.7460    0.6140   29.6820 H   0  0  0  0  0  0  0  0  0  0  0  0
   26.9680    0.3580   29.6180 H   0  0  0  0  0  0  0  0  0  0  0  0
   22.6170    2.0950   31.5690 H   0  0  0  0  0  0  0  0  0  0  0  0
   23.5210   -0.2210   31.6590 H   0  0  0  0  0  0  0  0  0  0  0  0
   23.1620    0.6950   33.2240 H   0  0  0  0  0  0  0  0  0  0  0  0
   24.4440   -0.6180   33.1930 H   0  0  0  0  0  0  0  0  0  0  0  0
  1  2  1  0  0  0  0
  1 31  1  0  0  0  0
  1 32  1  0  0  0  0
  1 33  1  0  0  0  0
  2  3  1  0  0  0  0
  2 34  1  0  0  0  0
  2 35  1  0  0  0  0
  3  4  1  0  0  0  0
  4 10  2  0  0  0  0
  4  5  1  0  0  0  0
  5  6  2  0  0  0  0
  6  7  1  0  0  0  0
  6 13  1  0  0  0  0
  7  8  2  0  0  0  0
  7 36  1  0  0  0  0
  8  9  1  0  0  0  0
  8 10  1  0  0  0  0
  9 37  1  0  0  0  0
  9 38  1  0  0  0  0
 10 11  1  0  0  0  0
 11 12  3  0  0  0  0
 13 14  1  0  0  0  0
 13 39  1  0  0  0  0
 14 15  2  0  0  0  0
 14 16  1  0  0  0  0
 16 17  1  0  0  0  0
 16 40  1  0  0  0  0
 16 41  1  0  0  0  0
 17 28  2  0  0  0  0
 17 18  1  0  0  0  0
 18 19  1  0  0  0  0
 18 21  2  0  0  0  0
 19 20  1  0  0  0  0
 20 42  1  0  0  0  0
 20 43  1  0  0  0  0
 20 44  1  0  0  0  0
 21 22  1  0  0  0  0
 21 45  1  0  0  0  0
 22 23  1  0  0  0  0
 22 27  2  0  0  0  0
 23 24  2  0  0  0  0
 23 25  2  0  0  0  0
 23 26  1  0  0  0  0
 26 46  1  0  0  0  0
 26 47  1  0  0  0  0
 26 48  1  0  0  0  0
 27 28  1  0  0  0  0
 27 29  1  0  0  0  0
 28 49  1  0  0  0  0
 29 30  1  0  0  0  0
 30 50  1  0  0  0  0
 30 51  1  0  0  0  0
 30 52  1  0  0  0  0
M  END
$$$$
