51
 OpenBabel02232411163D
Structure written by MMmdl.
 44 47  0  0  0  0  0  0  0  0999 V2000
    4.0380  -50.7700    6.9080 O   0  0  0  0  0  0  0  0  0  0  0  0
    3.3260  -49.7490    6.9880 C   0  0  0  0  0  0  0  0  0  0  0  0
    3.7080  -48.6020    7.2510 O   0  5  0  0  0  0  0  0  0  0  0  0
    1.8250  -49.9620    6.7190 C   0  0  0  0  0  0  0  0  0  0  0  0
   -0.1120  -51.1750    6.6190 C   0  0  0  0  0  0  0  0  0  0  0  0
   -1.1210  -52.1540    6.7290 C   0  0  0  0  0  0  0  0  0  0  0  0
   -2.4080  -51.8000    6.3650 C   0  0  0  0  0  0  0  0  0  0  0  0
   -2.7060  -50.5100    5.8570 C   0  0  0  0  0  0  0  0  0  0  0  0
   -1.7010  -49.5680    5.7430 C   0  0  0  0  0  0  0  0  0  0  0  0
   -0.3860  -49.8350    6.1540 C   0  0  0  0  0  0  0  0  0  0  0  0
    0.8440  -49.0860    6.2630 C   0  0  0  0  0  0  0  0  0  0  0  0
    0.9550  -47.6150    6.0580 C   0  0  0  0  0  0  0  0  0  0  0  0
    0.2300  -46.8800    7.2070 C   0  0  0  0  0  0  0  0  0  0  0  0
   -0.7570  -45.8020    6.7710 C   0  0  0  0  0  0  0  0  0  0  0  0
   -2.0260  -46.3140    7.3290 O   0  0  0  0  0  0  0  0  0  0  0  0
   -3.1850  -45.6380    7.0900 C   0  0  0  0  0  0  0  0  0  0  0  0
   -5.6710  -44.3360    6.9060 C   0  0  0  0  0  0  0  0  0  0  0  0
   -4.7230  -44.1760    5.9270 C   0  0  0  0  0  0  0  0  0  0  0  0
   -3.4630  -44.8270    6.0090 C   0  0  0  0  0  0  0  0  0  0  0  0
   -0.8980  -53.1560    7.0970 H   0  0  0  0  0  0  0  0  0  0  0  0
   -3.2210  -52.5230    6.4590 H   0  0  0  0  0  0  0  0  0  0  0  0
   -3.7300  -50.2840    5.5540 H   0  0  0  0  0  0  0  0  0  0  0  0
   -2.0700  -48.0410    5.0110 Cl  0  0  0  0  0  0  0  0  0  0  0  0
    0.5140  -47.3340    5.0700 H   0  0  0  0  0  0  0  0  0  0  0  0
    2.0310  -47.3050    6.0510 H   0  0  0  0  0  0  0  0  0  0  0  0
    0.9760  -46.4400    7.8990 H   0  0  0  0  0  0  0  0  0  0  0  0
   -0.3880  -47.6240    7.7850 H   0  0  0  0  0  0  0  0  0  0  0  0
   -0.5960  -44.8220    7.2610 H   0  0  0  0  0  0  0  0  0  0  0  0
   -0.8560  -45.7150    5.6830 H   0  0  0  0  0  0  0  0  0  0  0  0
   -2.7760  -44.6740    5.1920 H   0  0  0  0  0  0  0  0  0  0  0  0
   -5.4130  -45.1850    8.0280 C   0  0  0  0  0  0  0  0  0  0  0  0
   -4.1790  -45.8810    8.1150 C   0  0  0  0  0  0  0  0  0  0  0  0
   -3.9510  -46.7960    9.1820 C   0  0  0  0  0  0  0  0  0  0  0  0
   -4.9090  -46.9760   10.1520 C   0  0  0  0  0  0  0  0  0  0  0  0
   -6.1120  -46.2210   10.1130 C   0  0  0  0  0  0  0  0  0  0  0  0
   -6.3690  -45.3590    9.0740 C   0  0  0  0  0  0  0  0  0  0  0  0
   -3.0100  -47.3550    9.2070 H   0  0  0  0  0  0  0  0  0  0  0  0
   -4.7730  -47.7120   10.9410 H   0  0  0  0  0  0  0  0  0  0  0  0
   -6.8410  -46.3420   10.9130 H   0  0  0  0  0  0  0  0  0  0  0  0
   -7.3090  -44.8110    9.0260 H   0  0  0  0  0  0  0  0  0  0  0  0
   -4.9210  -43.5410    5.0590 H   0  0  0  0  0  0  0  0  0  0  0  0
   -6.6360  -43.8350    6.8380 H   0  0  0  0  0  0  0  0  0  0  0  0
    1.2480  -51.2320    6.9330 N   0  0  0  0  0  0  0  0  0  0  0  0
    1.7090  -52.0740    7.2640 H   0  0  0  0  0  0  0  0  0  0  0  0
  1  2  2  0  0  0  0
  2  3  1  0  0  0  0
  2  4  1  0  0  0  0
  4 11  2  0  0  0  0
  4 43  1  0  0  0  0
  5  6  2  0  0  0  0
  5 10  1  0  0  0  0
  5 43  1  0  0  0  0
  6  7  1  0  0  0  0
  6 20  1  0  0  0  0
  7  8  2  0  0  0  0
  7 21  1  0  0  0  0
  8  9  1  0  0  0  0
  8 22  1  0  0  0  0
  9 10  2  0  0  0  0
  9 23  1  0  0  0  0
 10 11  1  0  0  0  0
 11 12  1  0  0  0  0
 12 24  1  0  0  0  0
 12 25  1  0  0  0  0
 12 13  1  0  0  0  0
 13 14  1  0  0  0  0
 13 26  1  0  0  0  0
 13 27  1  0  0  0  0
 14 15  1  0  0  0  0
 14 28  1  0  0  0  0
 14 29  1  0  0  0  0
 15 16  1  0  0  0  0
 16 19  2  0  0  0  0
 16 32  1  0  0  0  0
 17 18  2  0  0  0  0
 17 31  1  0  0  0  0
 17 42  1  0  0  0  0
 18 19  1  0  0  0  0
 18 41  1  0  0  0  0
 19 30  1  0  0  0  0
 31 32  2  0  0  0  0
 31 36  1  0  0  0  0
 32 33  1  0  0  0  0
 33 34  2  0  0  0  0
 33 37  1  0  0  0  0
 34 35  1  0  0  0  0
 34 38  1  0  0  0  0
 35 36  2  0  0  0  0
 35 39  1  0  0  0  0
 36 40  1  0  0  0  0
 43 44  1  0  0  0  0
M  CHG  1   3  -1
M  END
$$$$
