p38a_2u
 OpenBabel02232411163D
Structure written by MMmdl.
 64 68  0  0  0  0  0  0  0  0999 V2000
   38.2780   36.5270   17.1850 C   0  0  0  0  0  0  0  0  0  0  0  0
   34.5250   35.0910   21.2620 C   0  0  0  0  0  0  0  0  0  0  0  0
   37.4950   36.0780   18.2450 C   0  0  0  0  0  0  0  0  0  0  0  0
   33.9990   39.1830   23.7890 C   0  0  0  0  0  0  0  0  0  0  0  0
   34.6350   37.9660   21.3990 C   0  0  0  0  0  0  0  0  0  0  0  0
   35.0440   37.3070   20.1900 C   0  0  0  0  0  0  0  0  0  0  0  0
   37.6320   36.6740   15.9510 C   0  0  0  0  0  0  0  0  0  0  0  0
   36.2840   36.3670   15.7460 C   0  0  0  0  0  0  0  0  0  0  0  0
   35.5220   35.9050   16.8240 C   0  0  0  0  0  0  0  0  0  0  0  0
   34.2330   37.1990   22.5310 C   0  0  0  0  0  0  0  0  0  0  0  0
   34.6380   39.3810   21.5430 C   0  0  0  0  0  0  0  0  0  0  0  0
   35.0220   35.9550   20.1540 C   0  0  0  0  0  0  0  0  0  0  0  0
   36.1330   35.7520   18.0720 C   0  0  0  0  0  0  0  0  0  0  0  0
   38.0280   35.9540   19.4540 F   0  0  0  0  0  0  0  0  0  0  0  0
   35.4120   35.1310   19.0990 O   0  0  0  0  0  0  0  0  0  0  0  0
   34.3380   40.0030   22.6920 N   0  0  0  0  0  0  0  0  0  0  0  0
   34.4270   33.8850   21.1860 O   0  0  0  0  0  0  0  0  0  0  0  0
   34.1360   35.7920   22.4570 N   0  0  0  0  0  0  0  0  0  0  0  0
   33.9310   37.8040   23.7230 N   0  0  0  0  0  0  0  0  0  0  0  0
   33.6640   39.7970   24.9710 N   0  0  0  0  0  0  0  0  0  0  0  0
   39.3320   36.7890   17.3190 H   0  0  0  0  0  0  0  0  0  0  0  0
   35.3710   37.9200   19.3480 H   0  0  0  0  0  0  0  0  0  0  0  0
   35.8140   36.4990   14.7680 H   0  0  0  0  0  0  0  0  0  0  0  0
   34.4590   35.6820   16.6860 H   0  0  0  0  0  0  0  0  0  0  0  0
   34.8940   40.0150   20.6790 H   0  0  0  0  0  0  0  0  0  0  0  0
   33.8090   40.8190   25.0800 H   0  0  0  0  0  0  0  0  0  0  0  0
   38.3290   37.1690   14.9310 F   0  0  0  0  0  0  0  0  0  0  0  0
   32.3270   39.1260   28.4880 C   0  0  0  0  0  0  0  0  0  0  0  0
   32.4990   39.8420   27.1430 C   0  0  0  0  0  0  0  0  0  0  0  0
   33.4430   39.0270   26.2350 C   0  0  0  0  0  0  0  0  0  0  0  0
   34.7800   38.7570   26.9570 C   0  0  0  0  0  0  0  0  0  0  0  0
   34.5090   38.0930   28.3130 C   0  0  0  0  0  0  0  0  0  0  0  0
   33.5990   38.8700   29.1250 O   0  0  0  0  0  0  0  0  0  0  0  0
   31.7850   38.1610   28.3580 H   0  0  0  0  0  0  0  0  0  0  0  0
   31.8240   39.7860   29.2320 H   0  0  0  0  0  0  0  0  0  0  0  0
   32.9230   40.8610   27.3160 H   0  0  0  0  0  0  0  0  0  0  0  0
   31.5080   39.9580   26.6440 H   0  0  0  0  0  0  0  0  0  0  0  0
   32.9530   38.0460   25.9740 H   0  0  0  0  0  0  0  0  0  0  0  0
   35.4120   38.0730   26.3400 H   0  0  0  0  0  0  0  0  0  0  0  0
   35.3350   39.7130   27.1020 H   0  0  0  0  0  0  0  0  0  0  0  0
   34.0900   37.0690   28.1740 H   0  0  0  0  0  0  0  0  0  0  0  0
   35.4290   38.0750   28.9420 H   0  0  0  0  0  0  0  0  0  0  0  0
   34.3490   33.6400   25.6590 C   0  0  0  0  0  0  0  0  0  0  0  0
   34.8120   34.2180   24.3000 C   0  0  0  0  0  0  0  0  0  0  0  0
   33.6600   35.0270   23.6760 C   0  0  0  0  0  0  0  0  0  0  0  0
   32.4510   34.1270   23.3450 C   0  0  0  0  0  0  0  0  0  0  0  0
   32.3490   32.9470   24.3400 C   0  0  0  0  0  0  0  0  0  0  0  0
   34.5460   34.3980   26.4660 H   0  0  0  0  0  0  0  0  0  0  0  0
   34.9630   32.7200   25.8580 H   0  0  0  0  0  0  0  0  0  0  0  0
   35.1160   33.3820   23.6290 H   0  0  0  0  0  0  0  0  0  0  0  0
   35.6970   34.8700   24.4850 H   0  0  0  0  0  0  0  0  0  0  0  0
   33.3230   35.7830   24.4480 H   0  0  0  0  0  0  0  0  0  0  0  0
   31.5230   34.7470   23.4010 H   0  0  0  0  0  0  0  0  0  0  0  0
   32.5240   33.6950   22.3190 H   0  0  0  0  0  0  0  0  0  0  0  0
   31.2710   32.6550   24.4390 H   0  0  0  0  0  0  0  0  0  0  0  0
   32.9340   32.0710   23.9440 H   0  0  0  0  0  0  0  0  0  0  0  0
   32.8850   33.3380   25.6770 N   0  0  0  0  0  0  0  0  0  0  0  0
   32.2210   32.6230   27.0890 S   0  0  0  0  0  0  0  0  0  0  0  0
   30.9220   32.0260   26.7110 O   0  0  0  0  0  0  0  0  0  0  0  0
   32.0670   33.6580   28.1270 O   0  0  0  0  0  0  0  0  0  0  0  0
   33.3310   31.4050   27.6340 C   0  0  0  0  0  0  0  0  0  0  0  0
   33.6490   30.7110   26.8120 H   0  0  0  0  0  0  0  0  0  0  0  0
   34.2610   31.8370   28.0860 H   0  0  0  0  0  0  0  0  0  0  0  0
   32.8770   30.7530   28.4290 H   0  0  0  0  0  0  0  0  0  0  0  0
  1  3  2  0  0  0  0
  1  7  1  0  0  0  0
  1 21  1  0  0  0  0
  2 12  1  0  0  0  0
  2 17  2  0  0  0  0
  2 18  1  0  0  0  0
  3 13  1  0  0  0  0
  3 14  1  0  0  0  0
  4 16  2  0  0  0  0
  4 19  1  0  0  0  0
  4 20  1  0  0  0  0
  5  6  1  0  0  0  0
  5 10  1  0  0  0  0
  5 11  2  0  0  0  0
  6 12  2  0  0  0  0
  6 22  1  0  0  0  0
  7  8  2  0  0  0  0
  7 27  1  0  0  0  0
  8  9  1  0  0  0  0
  8 23  1  0  0  0  0
  9 13  2  0  0  0  0
  9 24  1  0  0  0  0
 10 18  1  0  0  0  0
 10 19  2  0  0  0  0
 11 16  1  0  0  0  0
 11 25  1  0  0  0  0
 12 15  1  0  0  0  0
 13 15  1  0  0  0  0
 18 45  1  0  0  0  0
 20 26  1  0  0  0  0
 20 30  1  0  0  0  0
 28 29  1  0  0  0  0
 28 33  1  0  0  0  0
 28 34  1  0  0  0  0
 28 35  1  0  0  0  0
 29 30  1  0  0  0  0
 29 36  1  0  0  0  0
 29 37  1  0  0  0  0
 30 31  1  0  0  0  0
 30 38  1  0  0  0  0
 31 32  1  0  0  0  0
 31 39  1  0  0  0  0
 31 40  1  0  0  0  0
 32 33  1  0  0  0  0
 32 41  1  0  0  0  0
 32 42  1  0  0  0  0
 43 44  1  0  0  0  0
 43 48  1  0  0  0  0
 43 49  1  0  0  0  0
 43 57  1  0  0  0  0
 44 45  1  0  0  0  0
 44 50  1  0  0  0  0
 44 51  1  0  0  0  0
 45 46  1  0  0  0  0
 45 52  1  0  0  0  0
 46 47  1  0  0  0  0
 46 53  1  0  0  0  0
 46 54  1  0  0  0  0
 47 55  1  0  0  0  0
 47 56  1  0  0  0  0
 47 57  1  0  0  0  0
 57 58  1  0  0  0  0
 58 59  2  0  0  0  0
 58 60  2  0  0  0  0
 58 61  1  0  0  0  0
 61 62  1  0  0  0  0
 61 63  1  0  0  0  0
 61 64  1  0  0  0  0
M  END
$$$$
