p38a_2u
 OpenBabel02232411163D
Structure written by MMmdl.
 64 68  0  0  0  0  0  0  0  0999 V2000
   38.2450   36.4930   17.2360 C   0  0  0  0  0  0  0  0  0  0  0  0
   34.5610   35.1350   21.4220 C   0  0  0  0  0  0  0  0  0  0  0  0
   37.4850   36.0660   18.3220 C   0  0  0  0  0  0  0  0  0  0  0  0
   34.0850   39.2710   23.8860 C   0  0  0  0  0  0  0  0  0  0  0  0
   34.6800   38.0090   21.5090 C   0  0  0  0  0  0  0  0  0  0  0  0
   35.0610   37.3300   20.3020 C   0  0  0  0  0  0  0  0  0  0  0  0
   37.5690   36.6230   16.0150 C   0  0  0  0  0  0  0  0  0  0  0  0
   36.2140   36.3260   15.8500 C   0  0  0  0  0  0  0  0  0  0  0  0
   35.4750   35.8890   16.9550 C   0  0  0  0  0  0  0  0  0  0  0  0
   34.3270   37.2620   22.6710 C   0  0  0  0  0  0  0  0  0  0  0  0
   34.6510   39.4260   21.6180 C   0  0  0  0  0  0  0  0  0  0  0  0
   35.0480   35.9780   20.2920 C   0  0  0  0  0  0  0  0  0  0  0  0
   36.1170   35.7480   18.1890 C   0  0  0  0  0  0  0  0  0  0  0  0
   38.0490   35.9560   19.5170 F   0  0  0  0  0  0  0  0  0  0  0  0
   35.4250   35.1390   19.2450 O   0  0  0  0  0  0  0  0  0  0  0  0
   34.3680   40.0700   22.7600 N   0  0  0  0  0  0  0  0  0  0  0  0
   34.4320   33.9310   21.3680 O   0  0  0  0  0  0  0  0  0  0  0  0
   34.2470   35.8520   22.6290 N   0  0  0  0  0  0  0  0  0  0  0  0
   34.0610   37.8890   23.8600 N   0  0  0  0  0  0  0  0  0  0  0  0
   33.7580   39.9090   25.0590 N   0  0  0  0  0  0  0  0  0  0  0  0
   39.3030   36.7500   17.3370 H   0  0  0  0  0  0  0  0  0  0  0  0
   35.3600   37.9310   19.4400 H   0  0  0  0  0  0  0  0  0  0  0  0
   35.7200   36.4440   14.8820 H   0  0  0  0  0  0  0  0  0  0  0  0
   34.4060   35.6770   16.8490 H   0  0  0  0  0  0  0  0  0  0  0  0
   34.8620   40.0450   20.7300 H   0  0  0  0  0  0  0  0  0  0  0  0
   33.8610   40.9380   25.1330 H   0  0  0  0  0  0  0  0  0  0  0  0
   38.2480   37.0910   14.9690 F   0  0  0  0  0  0  0  0  0  0  0  0
   32.5030   39.2590   28.6110 C   0  0  0  0  0  0  0  0  0  0  0  0
   32.5880   39.9240   27.2310 C   0  0  0  0  0  0  0  0  0  0  0  0
   33.6120   39.1740   26.3540 C   0  0  0  0  0  0  0  0  0  0  0  0
   34.9730   39.0840   27.0770 C   0  0  0  0  0  0  0  0  0  0  0  0
   34.7820   38.4590   28.4640 C   0  0  0  0  0  0  0  0  0  0  0  0
   33.7980   39.1740   29.2460 O   0  0  0  0  0  0  0  0  0  0  0  0
   32.0660   38.2370   28.5300 H   0  0  0  0  0  0  0  0  0  0  0  0
   31.9300   39.8950   29.3250 H   0  0  0  0  0  0  0  0  0  0  0  0
   32.8920   40.9910   27.3490 H   0  0  0  0  0  0  0  0  0  0  0  0
   31.5860   39.9000   26.7400 H   0  0  0  0  0  0  0  0  0  0  0  0
   33.2220   38.1390   26.1400 H   0  0  0  0  0  0  0  0  0  0  0  0
   35.6750   38.4540   26.4810 H   0  0  0  0  0  0  0  0  0  0  0  0
   35.4130   40.1050   27.1760 H   0  0  0  0  0  0  0  0  0  0  0  0
   34.4670   37.3940   28.3780 H   0  0  0  0  0  0  0  0  0  0  0  0
   35.7000   38.5720   29.0860 H   0  0  0  0  0  0  0  0  0  0  0  0
   33.8300   32.9190   25.1080 C   0  0  0  0  0  0  0  0  0  0  0  0
   34.6100   34.0300   24.3590 C   0  0  0  0  0  0  0  0  0  0  0  0
   33.6590   35.1180   23.8200 C   0  0  0  0  0  0  0  0  0  0  0  0
   32.2880   34.5290   23.4420 C   0  0  0  0  0  0  0  0  0  0  0  0
   31.5940   33.9830   24.7070 C   0  0  0  0  0  0  0  0  0  0  0  0
   34.4830   32.5290   25.9300 H   0  0  0  0  0  0  0  0  0  0  0  0
   33.5940   32.0900   24.3870 H   0  0  0  0  0  0  0  0  0  0  0  0
   35.1770   33.5480   23.5290 H   0  0  0  0  0  0  0  0  0  0  0  0
   35.3350   34.5170   25.0540 H   0  0  0  0  0  0  0  0  0  0  0  0
   33.4920   35.8730   24.6470 H   0  0  0  0  0  0  0  0  0  0  0  0
   31.6300   35.3180   23.0060 H   0  0  0  0  0  0  0  0  0  0  0  0
   32.4020   33.7130   22.6900 H   0  0  0  0  0  0  0  0  0  0  0  0
   31.0430   34.8310   25.2030 H   0  0  0  0  0  0  0  0  0  0  0  0
   30.8490   33.2080   24.3800 H   0  0  0  0  0  0  0  0  0  0  0  0
   32.5630   33.4380   25.7030 N   0  0  0  0  0  0  0  0  0  0  0  0
   31.9490   32.7570   27.1590 S   0  0  0  0  0  0  0  0  0  0  0  0
   32.4520   33.5550   28.2910 O   0  0  0  0  0  0  0  0  0  0  0  0
   32.4290   31.3600   27.2390 O   0  0  0  0  0  0  0  0  0  0  0  0
   30.2200   32.8160   27.0840 C   0  0  0  0  0  0  0  0  0  0  0  0
   29.8120   33.8620   27.0220 H   0  0  0  0  0  0  0  0  0  0  0  0
   29.7940   32.2480   26.2170 H   0  0  0  0  0  0  0  0  0  0  0  0
   29.7530   32.3660   28.0020 H   0  0  0  0  0  0  0  0  0  0  0  0
  1  3  2  0  0  0  0
  1  7  1  0  0  0  0
  1 21  1  0  0  0  0
  2 12  1  0  0  0  0
  2 17  2  0  0  0  0
  2 18  1  0  0  0  0
  3 13  1  0  0  0  0
  3 14  1  0  0  0  0
  4 16  2  0  0  0  0
  4 19  1  0  0  0  0
  4 20  1  0  0  0  0
  5  6  1  0  0  0  0
  5 10  1  0  0  0  0
  5 11  2  0  0  0  0
  6 12  2  0  0  0  0
  6 22  1  0  0  0  0
  7  8  2  0  0  0  0
  7 27  1  0  0  0  0
  8  9  1  0  0  0  0
  8 23  1  0  0  0  0
  9 13  2  0  0  0  0
  9 24  1  0  0  0  0
 10 18  1  0  0  0  0
 10 19  2  0  0  0  0
 11 16  1  0  0  0  0
 11 25  1  0  0  0  0
 12 15  1  0  0  0  0
 13 15  1  0  0  0  0
 18 45  1  0  0  0  0
 20 26  1  0  0  0  0
 20 30  1  0  0  0  0
 28 29  1  0  0  0  0
 28 33  1  0  0  0  0
 28 34  1  0  0  0  0
 28 35  1  0  0  0  0
 29 30  1  0  0  0  0
 29 36  1  0  0  0  0
 29 37  1  0  0  0  0
 30 31  1  0  0  0  0
 30 38  1  0  0  0  0
 31 32  1  0  0  0  0
 31 39  1  0  0  0  0
 31 40  1  0  0  0  0
 32 33  1  0  0  0  0
 32 41  1  0  0  0  0
 32 42  1  0  0  0  0
 43 44  1  0  0  0  0
 43 48  1  0  0  0  0
 43 49  1  0  0  0  0
 43 57  1  0  0  0  0
 44 45  1  0  0  0  0
 44 50  1  0  0  0  0
 44 51  1  0  0  0  0
 45 46  1  0  0  0  0
 45 52  1  0  0  0  0
 46 47  1  0  0  0  0
 46 53  1  0  0  0  0
 46 54  1  0  0  0  0
 47 55  1  0  0  0  0
 47 56  1  0  0  0  0
 47 57  1  0  0  0  0
 57 58  1  0  0  0  0
 58 59  2  0  0  0  0
 58 60  2  0  0  0  0
 58 61  1  0  0  0  0
 61 62  1  0  0  0  0
 61 63  1  0  0  0  0
 61 64  1  0  0  0  0
M  END
$$$$
