34
 OpenBabel02232411163D
Structure written by MMmdl.
 41 43  0  0  0  0  0  0  0  0999 V2000
    3.8630  -50.1700    5.5240 O   0  0  0  0  0  0  0  0  0  0  0  0
    3.1600  -49.4510    6.2600 C   0  0  0  0  0  0  0  0  0  0  0  0
    3.5560  -48.5690    7.0340 O   0  5  0  0  0  0  0  0  0  0  0  0
    1.6470  -49.7460    6.2050 C   0  0  0  0  0  0  0  0  0  0  0  0
   -0.1960  -51.1070    6.2730 C   0  0  0  0  0  0  0  0  0  0  0  0
   -1.1040  -52.1700    6.4180 C   0  0  0  0  0  0  0  0  0  0  0  0
   -2.4550  -51.8780    6.2990 C   0  0  0  0  0  0  0  0  0  0  0  0
   -2.9030  -50.5630    6.0270 C   0  0  0  0  0  0  0  0  0  0  0  0
   -2.0110  -49.5090    5.8820 C   0  0  0  0  0  0  0  0  0  0  0  0
   -0.6360  -49.7600    6.0140 C   0  0  0  0  0  0  0  0  0  0  0  0
    0.5470  -48.9240    5.9880 C   0  0  0  0  0  0  0  0  0  0  0  0
    0.4770  -47.4440    5.8620 C   0  0  0  0  0  0  0  0  0  0  0  0
    0.0410  -46.8560    7.2210 C   0  0  0  0  0  0  0  0  0  0  0  0
   -0.5330  -45.4530    7.1240 C   0  0  0  0  0  0  0  0  0  0  0  0
   -1.6960  -45.4410    6.2270 O   0  0  0  0  0  0  0  0  0  0  0  0
   -2.9480  -45.3910    6.7460 C   0  0  0  0  0  0  0  0  0  0  0  0
   -3.3360  -45.9080    7.9940 C   0  0  0  0  0  0  0  0  0  0  0  0
   -4.6570  -45.7520    8.4050 C   0  0  0  0  0  0  0  0  0  0  0  0
   -5.5760  -45.0700    7.5940 C   0  0  0  0  0  0  0  0  0  0  0  0
   -5.1860  -44.5900    6.3250 C   0  0  0  0  0  0  0  0  0  0  0  0
   -3.8830  -44.7560    5.8910 C   0  0  0  0  0  0  0  0  0  0  0  0
   -0.7670  -53.1860    6.6270 H   0  0  0  0  0  0  0  0  0  0  0  0
   -3.1970  -52.6670    6.4240 H   0  0  0  0  0  0  0  0  0  0  0  0
   -3.9750  -50.3830    5.9340 H   0  0  0  0  0  0  0  0  0  0  0  0
   -2.3800  -48.5030    5.6780 H   0  0  0  0  0  0  0  0  0  0  0  0
   -0.2960  -47.1680    5.0970 H   0  0  0  0  0  0  0  0  0  0  0  0
    1.4510  -47.0020    5.5520 H   0  0  0  0  0  0  0  0  0  0  0  0
    0.9200  -46.8230    7.9060 H   0  0  0  0  0  0  0  0  0  0  0  0
   -0.7410  -47.5240    7.6630 H   0  0  0  0  0  0  0  0  0  0  0  0
    0.1280  -44.7500    6.5660 H   0  0  0  0  0  0  0  0  0  0  0  0
   -0.8310  -45.0420    8.1130 H   0  0  0  0  0  0  0  0  0  0  0  0
   -2.6390  -46.4510    8.6310 H   0  0  0  0  0  0  0  0  0  0  0  0
   -3.5720  -44.3970    4.9130 H   0  0  0  0  0  0  0  0  0  0  0  0
    1.2040  -51.0740    6.3750 N   0  0  0  0  0  0  0  0  0  0  0  0
    1.7710  -51.8990    6.5370 H   0  0  0  0  0  0  0  0  0  0  0  0
   -5.9120  -44.0890    5.6780 H   0  0  0  0  0  0  0  0  0  0  0  0
   -4.9660  -46.1700    9.3680 H   0  0  0  0  0  0  0  0  0  0  0  0
   -6.9760  -44.8260    8.0360 C   0  0  0  0  0  0  0  0  0  0  0  0
   -7.9280  -45.4660    7.3300 F   0  0  0  0  0  0  0  0  0  0  0  0
   -7.2740  -45.1450    9.3070 F   0  0  0  0  0  0  0  0  0  0  0  0
   -7.3530  -43.5340    7.9480 F   0  0  0  0  0  0  0  0  0  0  0  0
  1  2  2  0  0  0  0
  2  3  1  0  0  0  0
  2  4  1  0  0  0  0
  4 11  2  0  0  0  0
  4 34  1  0  0  0  0
  5  6  2  0  0  0  0
  5 10  1  0  0  0  0
  5 34  1  0  0  0  0
  6  7  1  0  0  0  0
  6 22  1  0  0  0  0
  7  8  2  0  0  0  0
  7 23  1  0  0  0  0
  8  9  1  0  0  0  0
  8 24  1  0  0  0  0
  9 10  2  0  0  0  0
  9 25  1  0  0  0  0
 10 11  1  0  0  0  0
 11 12  1  0  0  0  0
 12 26  1  0  0  0  0
 12 27  1  0  0  0  0
 12 13  1  0  0  0  0
 13 14  1  0  0  0  0
 13 28  1  0  0  0  0
 13 29  1  0  0  0  0
 14 15  1  0  0  0  0
 14 30  1  0  0  0  0
 14 31  1  0  0  0  0
 15 16  1  0  0  0  0
 16 17  2  0  0  0  0
 16 21  1  0  0  0  0
 17 18  1  0  0  0  0
 17 32  1  0  0  0  0
 18 19  2  0  0  0  0
 18 37  1  0  0  0  0
 19 20  1  0  0  0  0
 19 38  1  0  0  0  0
 20 21  2  0  0  0  0
 20 36  1  0  0  0  0
 21 33  1  0  0  0  0
 34 35  1  0  0  0  0
 38 39  1  0  0  0  0
 38 40  1  0  0  0  0
 38 41  1  0  0  0  0
M  CHG  1   3  -1
M  END
$$$$
