46
 OpenBabel02232411163D
Structure written by MMmdl.
 45 48  0  0  0  0  0  0  0  0999 V2000
    3.5500  -48.4200    7.1500 O   0  0  0  0  0  0  0  0  0  0  0  0
    3.1500  -49.3870    6.4890 C   0  0  0  0  0  0  0  0  0  0  0  0
    3.8530  -50.2340    5.9040 O   0  5  0  0  0  0  0  0  0  0  0  0
    1.6310  -49.6140    6.3750 C   0  0  0  0  0  0  0  0  0  0  0  0
   -0.2970  -50.8390    6.5330 C   0  0  0  0  0  0  0  0  0  0  0  0
   -1.2760  -51.8180    6.7720 C   0  0  0  0  0  0  0  0  0  0  0  0
   -2.5860  -51.5070    6.4380 C   0  0  0  0  0  0  0  0  0  0  0  0
   -2.9220  -50.2530    5.8750 C   0  0  0  0  0  0  0  0  0  0  0  0
   -1.9590  -49.2810    5.6380 C   0  0  0  0  0  0  0  0  0  0  0  0
   -0.6210  -49.5520    5.9690 C   0  0  0  0  0  0  0  0  0  0  0  0
    0.6130  -48.7980    5.8940 C   0  0  0  0  0  0  0  0  0  0  0  0
    0.6970  -47.3960    5.4070 C   0  0  0  0  0  0  0  0  0  0  0  0
    0.6560  -46.3680    6.5520 C   0  0  0  0  0  0  0  0  0  0  0  0
   -0.6530  -46.3900    7.3360 C   0  0  0  0  0  0  0  0  0  0  0  0
   -1.6480  -45.8340    6.3990 O   0  0  0  0  0  0  0  0  0  0  0  0
   -2.9060  -45.6080    6.8810 C   0  0  0  0  0  0  0  0  0  0  0  0
   -5.0090  -44.4730    6.4470 C   0  0  0  0  0  0  0  0  0  0  0  0
   -3.7140  -44.8140    6.0410 C   0  0  0  0  0  0  0  0  0  0  0  0
   -1.0250  -52.7850    7.2090 H   0  0  0  0  0  0  0  0  0  0  0  0
   -3.3800  -52.2330    6.6130 H   0  0  0  0  0  0  0  0  0  0  0  0
   -3.9660  -50.0570    5.6290 H   0  0  0  0  0  0  0  0  0  0  0  0
   -2.2460  -48.3200    5.2080 H   0  0  0  0  0  0  0  0  0  0  0  0
   -0.1780  -47.1920    4.7370 H   0  0  0  0  0  0  0  0  0  0  0  0
    1.6350  -47.2310    4.8260 H   0  0  0  0  0  0  0  0  0  0  0  0
    0.7830  -45.3460    6.1250 H   0  0  0  0  0  0  0  0  0  0  0  0
    1.4850  -46.5800    7.2710 H   0  0  0  0  0  0  0  0  0  0  0  0
   -0.6230  -45.7120    8.2150 H   0  0  0  0  0  0  0  0  0  0  0  0
   -0.9870  -47.4190    7.5880 H   0  0  0  0  0  0  0  0  0  0  0  0
   -3.3360  -44.4660    5.0850 H   0  0  0  0  0  0  0  0  0  0  0  0
   -3.3830  -46.1140    8.1090 C   0  0  0  0  0  0  0  0  0  0  0  0
   -5.6380  -43.8540    5.8090 H   0  0  0  0  0  0  0  0  0  0  0  0
   -2.7920  -46.7580    8.7520 H   0  0  0  0  0  0  0  0  0  0  0  0
    1.0870  -50.8520    6.7720 N   0  0  0  0  0  0  0  0  0  0  0  0
   -6.6330  -45.2350    9.7730 C   0  0  0  0  0  0  0  0  0  0  0  0
   -5.3980  -46.1710    9.7350 C   0  0  0  0  0  0  0  0  0  0  0  0
   -4.6740  -45.7710    8.4790 C   0  0  0  0  0  0  0  0  0  0  0  0
   -5.4820  -44.9380    7.6690 C   0  0  0  0  0  0  0  0  0  0  0  0
   -6.8070  -44.6790    8.3310 C   0  0  0  0  0  0  0  0  0  0  0  0
   -7.0510  -43.5990    8.3370 H   0  0  0  0  0  0  0  0  0  0  0  0
   -7.6200  -45.2280    7.8000 H   0  0  0  0  0  0  0  0  0  0  0  0
   -7.5360  -45.7850   10.0990 H   0  0  0  0  0  0  0  0  0  0  0  0
   -6.4490  -44.4000   10.4810 H   0  0  0  0  0  0  0  0  0  0  0  0
   -5.7200  -47.2370    9.6690 H   0  0  0  0  0  0  0  0  0  0  0  0
   -4.7650  -46.0470   10.6340 H   0  0  0  0  0  0  0  0  0  0  0  0
    1.5800  -51.6510    7.1520 H   0  0  0  0  0  0  0  0  0  0  0  0
  1  2  2  0  0  0  0
  2  3  1  0  0  0  0
  2  4  1  0  0  0  0
  4 11  2  0  0  0  0
  4 33  1  0  0  0  0
  5  6  2  0  0  0  0
  5 10  1  0  0  0  0
  5 33  1  0  0  0  0
  6  7  1  0  0  0  0
  6 19  1  0  0  0  0
  7  8  2  0  0  0  0
  7 20  1  0  0  0  0
  8  9  1  0  0  0  0
  8 21  1  0  0  0  0
  9 10  2  0  0  0  0
  9 22  1  0  0  0  0
 10 11  1  0  0  0  0
 11 12  1  0  0  0  0
 12 23  1  0  0  0  0
 12 24  1  0  0  0  0
 12 13  1  0  0  0  0
 13 14  1  0  0  0  0
 13 25  1  0  0  0  0
 13 26  1  0  0  0  0
 14 15  1  0  0  0  0
 14 27  1  0  0  0  0
 14 28  1  0  0  0  0
 15 16  1  0  0  0  0
 16 18  2  0  0  0  0
 16 30  1  0  0  0  0
 17 18  1  0  0  0  0
 17 31  1  0  0  0  0
 17 37  2  0  0  0  0
 18 29  1  0  0  0  0
 30 32  1  0  0  0  0
 30 36  2  0  0  0  0
 33 45  1  0  0  0  0
 34 35  1  0  0  0  0
 34 38  1  0  0  0  0
 34 41  1  0  0  0  0
 34 42  1  0  0  0  0
 35 36  1  0  0  0  0
 35 43  1  0  0  0  0
 35 44  1  0  0  0  0
 36 37  1  0  0  0  0
 37 38  1  0  0  0  0
 38 39  1  0  0  0  0
 38 40  1  0  0  0  0
M  CHG  1   3  -1
M  END
$$$$
