18639-1
 OpenBabel02232411163D
Structure written by MMmdl.
 48 49  0  0  0  0  0  0  0  0999 V2000
   23.2170   10.7860   29.0610 C   0  0  0  0  0  0  0  0  0  0  0  0
   23.4940   11.0340   30.5280 C   0  0  0  0  0  0  0  0  0  0  0  0
   22.2290   11.1490   31.2850 O   0  0  0  0  0  0  0  0  0  0  0  0
   21.5660   10.0230   31.6310 C   0  0  0  0  0  0  0  0  0  0  0  0
   22.0330    8.8230   31.2150 N   0  0  0  0  0  0  0  0  0  0  0  0
   21.2850    7.7000   31.5290 C   0  0  0  0  0  0  0  0  0  0  0  0
   20.1170    7.7580   32.2800 C   0  0  0  0  0  0  0  0  0  0  0  0
   19.6490    9.0190   32.7380 C   0  0  0  0  0  0  0  0  0  0  0  0
   18.4940    9.0800   33.4760 N   0  0  0  0  0  0  0  0  0  0  0  0
   20.3810   10.2040   32.4050 C   0  0  0  0  0  0  0  0  0  0  0  0
   19.9870   11.5100   32.7630 C   0  0  0  0  0  0  0  0  0  0  0  0
   19.7140   12.6090   33.0180 N   0  0  0  0  0  0  0  0  0  0  0  0
   21.8620    6.5310   30.9800 N   0  0  0  0  0  0  0  0  0  0  0  0
   21.2570    5.2620   30.8770 C   0  0  0  0  0  0  0  0  0  0  0  0
   20.1590    5.0160   31.3280 O   0  0  0  0  0  0  0  0  0  0  0  0
   22.0830    4.2630   30.0750 C   0  0  0  0  0  0  0  0  0  0  0  0
   23.4540    3.9990   30.6260 C   0  0  0  0  0  0  0  0  0  0  0  0
   24.5470    4.8620   30.3000 C   0  0  0  0  0  0  0  0  0  0  0  0
   24.1830    5.9070   29.4590 O   0  0  0  0  0  0  0  0  0  0  0  0
   25.1310    6.9990   29.2970 C   0  0  0  0  0  0  0  0  0  0  0  0
   25.8290    4.6260   30.7700 C   0  0  0  0  0  0  0  0  0  0  0  0
   26.0670    3.5140   31.6050 C   0  0  0  0  0  0  0  0  0  0  0  0
   27.4220    3.2650   32.1030 N   0  3  0  0  0  0  0  0  0  0  0  0
   27.5630    2.4730   33.0220 O   0  5  0  0  0  0  0  0  0  0  0  0
   28.3570    3.8540   31.5740 O   0  0  0  0  0  0  0  0  0  0  0  0
   24.9990    2.6460   31.9330 C   0  0  0  0  0  0  0  0  0  0  0  0
   23.7010    2.8960   31.4280 C   0  0  0  0  0  0  0  0  0  0  0  0
   25.3530    1.6110   32.7450 O   0  0  0  0  0  0  0  0  0  0  0  0
   24.3580    0.5750   32.9950 C   0  0  0  0  0  0  0  0  0  0  0  0
   24.1780   10.8370   28.4920 H   0  0  0  0  0  0  0  0  0  0  0  0
   22.5250   11.5510   28.6430 H   0  0  0  0  0  0  0  0  0  0  0  0
   22.7710    9.7760   28.8990 H   0  0  0  0  0  0  0  0  0  0  0  0
   23.9060   12.0550   30.7130 H   0  0  0  0  0  0  0  0  0  0  0  0
   24.1260   10.2350   30.9780 H   0  0  0  0  0  0  0  0  0  0  0  0
   19.5460    6.8550   32.5050 H   0  0  0  0  0  0  0  0  0  0  0  0
   17.9870    8.2140   33.7430 H   0  0  0  0  0  0  0  0  0  0  0  0
   18.1040    9.9710   33.7820 H   0  0  0  0  0  0  0  0  0  0  0  0
   22.7850    6.6770   30.5000 H   0  0  0  0  0  0  0  0  0  0  0  0
   21.5130    3.2980   30.0180 H   0  0  0  0  0  0  0  0  0  0  0  0
   22.1880    4.6760   29.0310 H   0  0  0  0  0  0  0  0  0  0  0  0
   25.4500    7.3930   30.2860 H   0  0  0  0  0  0  0  0  0  0  0  0
   25.9870    6.6500   28.6810 H   0  0  0  0  0  0  0  0  0  0  0  0
   24.5100    7.7460   28.7500 H   0  0  0  0  0  0  0  0  0  0  0  0
   26.6660    5.2800   30.4960 H   0  0  0  0  0  0  0  0  0  0  0  0
   22.8880    2.2060   31.6680 H   0  0  0  0  0  0  0  0  0  0  0  0
   24.9480   -0.1560   33.5990 H   0  0  0  0  0  0  0  0  0  0  0  0
   23.5130    0.9900   33.5840 H   0  0  0  0  0  0  0  0  0  0  0  0
   24.0280    0.1230   32.0340 H   0  0  0  0  0  0  0  0  0  0  0  0
  1  2  1  0  0  0  0
  1 30  1  0  0  0  0
  1 31  1  0  0  0  0
  1 32  1  0  0  0  0
  2  3  1  0  0  0  0
  2 33  1  0  0  0  0
  2 34  1  0  0  0  0
  3  4  1  0  0  0  0
  4 10  2  0  0  0  0
  4  5  1  0  0  0  0
  5  6  2  0  0  0  0
  6  7  1  0  0  0  0
  6 13  1  0  0  0  0
  7  8  2  0  0  0  0
  7 35  1  0  0  0  0
  8  9  1  0  0  0  0
  8 10  1  0  0  0  0
  9 36  1  0  0  0  0
  9 37  1  0  0  0  0
 10 11  1  0  0  0  0
 11 12  3  0  0  0  0
 13 14  1  0  0  0  0
 13 38  1  0  0  0  0
 14 15  2  0  0  0  0
 14 16  1  0  0  0  0
 16 17  1  0  0  0  0
 16 39  1  0  0  0  0
 16 40  1  0  0  0  0
 17 27  2  0  0  0  0
 17 18  1  0  0  0  0
 18 19  1  0  0  0  0
 18 21  2  0  0  0  0
 19 20  1  0  0  0  0
 20 41  1  0  0  0  0
 20 42  1  0  0  0  0
 20 43  1  0  0  0  0
 21 22  1  0  0  0  0
 21 44  1  0  0  0  0
 22 23  1  0  0  0  0
 22 26  2  0  0  0  0
 23 24  1  0  0  0  0
 23 25  2  0  0  0  0
 26 27  1  0  0  0  0
 26 28  1  0  0  0  0
 27 45  1  0  0  0  0
 28 29  1  0  0  0  0
 29 46  1  0  0  0  0
 29 47  1  0  0  0  0
 29 48  1  0  0  0  0
M  CHG  2  23   1  24  -1
M  END
$$$$
