18639-1
 OpenBabel02232411163D
Structure written by MMmdl.
 48 49  0  0  0  0  0  0  0  0999 V2000
   23.1780   10.8010   29.0650 C   0  0  0  0  0  0  0  0  0  0  0  0
   23.4610   11.0500   30.5310 C   0  0  0  0  0  0  0  0  0  0  0  0
   22.1990   11.1570   31.2950 O   0  0  0  0  0  0  0  0  0  0  0  0
   21.5430   10.0270   31.6410 C   0  0  0  0  0  0  0  0  0  0  0  0
   22.0130    8.8310   31.2190 N   0  0  0  0  0  0  0  0  0  0  0  0
   21.2700    7.7040   31.5320 C   0  0  0  0  0  0  0  0  0  0  0  0
   20.1060    7.7550   32.2890 C   0  0  0  0  0  0  0  0  0  0  0  0
   19.6330    9.0130   32.7520 C   0  0  0  0  0  0  0  0  0  0  0  0
   18.4800    9.0680   33.4920 N   0  0  0  0  0  0  0  0  0  0  0  0
   20.3610   10.2020   32.4210 C   0  0  0  0  0  0  0  0  0  0  0  0
   19.9650   11.5060   32.7850 C   0  0  0  0  0  0  0  0  0  0  0  0
   19.6900   12.6030   33.0420 N   0  0  0  0  0  0  0  0  0  0  0  0
   21.8460    6.5380   30.9770 N   0  0  0  0  0  0  0  0  0  0  0  0
   21.2460    5.2660   30.8790 C   0  0  0  0  0  0  0  0  0  0  0  0
   20.1520    5.0180   31.3400 O   0  0  0  0  0  0  0  0  0  0  0  0
   22.0700    4.2690   30.0730 C   0  0  0  0  0  0  0  0  0  0  0  0
   23.4380    4.0020   30.6280 C   0  0  0  0  0  0  0  0  0  0  0  0
   24.5340    4.8640   30.3040 C   0  0  0  0  0  0  0  0  0  0  0  0
   24.1730    5.9090   29.4620 O   0  0  0  0  0  0  0  0  0  0  0  0
   25.1250    6.9980   29.2980 C   0  0  0  0  0  0  0  0  0  0  0  0
   25.8140    4.6260   30.7780 C   0  0  0  0  0  0  0  0  0  0  0  0
   26.0470    3.5140   31.6150 C   0  0  0  0  0  0  0  0  0  0  0  0
   27.4000    3.2630   32.1180 N   0  3  0  0  0  0  0  0  0  0  0  0
   27.5360    2.4780   33.0440 O   0  5  0  0  0  0  0  0  0  0  0  0
   28.3390    3.8430   31.5850 O   0  0  0  0  0  0  0  0  0  0  0  0
   24.9770    2.6480   31.9410 C   0  0  0  0  0  0  0  0  0  0  0  0
   23.6810    2.8990   31.4310 C   0  0  0  0  0  0  0  0  0  0  0  0
   25.3260    1.6140   32.7560 O   0  0  0  0  0  0  0  0  0  0  0  0
   24.3290    0.5790   33.0030 C   0  0  0  0  0  0  0  0  0  0  0  0
   24.1350   10.8630   28.4900 H   0  0  0  0  0  0  0  0  0  0  0  0
   22.4770   11.5600   28.6520 H   0  0  0  0  0  0  0  0  0  0  0  0
   22.7420    9.7870   28.9040 H   0  0  0  0  0  0  0  0  0  0  0  0
   23.8680   12.0730   30.7150 H   0  0  0  0  0  0  0  0  0  0  0  0
   24.1000   10.2550   30.9780 H   0  0  0  0  0  0  0  0  0  0  0  0
   19.5390    6.8500   32.5160 H   0  0  0  0  0  0  0  0  0  0  0  0
   17.9770    8.2000   33.7580 H   0  0  0  0  0  0  0  0  0  0  0  0
   18.0860    9.9570   33.7980 H   0  0  0  0  0  0  0  0  0  0  0  0
   22.7680    6.6860   30.4930 H   0  0  0  0  0  0  0  0  0  0  0  0
   21.4980    3.3050   30.0130 H   0  0  0  0  0  0  0  0  0  0  0  0
   22.1770    4.6850   29.0310 H   0  0  0  0  0  0  0  0  0  0  0  0
   25.4430    7.3920   30.2870 H   0  0  0  0  0  0  0  0  0  0  0  0
   25.9790    6.6450   28.6830 H   0  0  0  0  0  0  0  0  0  0  0  0
   24.5050    7.7460   28.7500 H   0  0  0  0  0  0  0  0  0  0  0  0
   26.6530    5.2770   30.5060 H   0  0  0  0  0  0  0  0  0  0  0  0
   22.8660    2.2110   31.6690 H   0  0  0  0  0  0  0  0  0  0  0  0
   24.9150   -0.1510   33.6110 H   0  0  0  0  0  0  0  0  0  0  0  0
   23.4810    0.9950   33.5870 H   0  0  0  0  0  0  0  0  0  0  0  0
   24.0030    0.1260   32.0410 H   0  0  0  0  0  0  0  0  0  0  0  0
  1  2  1  0  0  0  0
  1 30  1  0  0  0  0
  1 31  1  0  0  0  0
  1 32  1  0  0  0  0
  2  3  1  0  0  0  0
  2 33  1  0  0  0  0
  2 34  1  0  0  0  0
  3  4  1  0  0  0  0
  4 10  2  0  0  0  0
  4  5  1  0  0  0  0
  5  6  2  0  0  0  0
  6  7  1  0  0  0  0
  6 13  1  0  0  0  0
  7  8  2  0  0  0  0
  7 35  1  0  0  0  0
  8  9  1  0  0  0  0
  8 10  1  0  0  0  0
  9 36  1  0  0  0  0
  9 37  1  0  0  0  0
 10 11  1  0  0  0  0
 11 12  3  0  0  0  0
 13 14  1  0  0  0  0
 13 38  1  0  0  0  0
 14 15  2  0  0  0  0
 14 16  1  0  0  0  0
 16 17  1  0  0  0  0
 16 39  1  0  0  0  0
 16 40  1  0  0  0  0
 17 27  2  0  0  0  0
 17 18  1  0  0  0  0
 18 19  1  0  0  0  0
 18 21  2  0  0  0  0
 19 20  1  0  0  0  0
 20 41  1  0  0  0  0
 20 42  1  0  0  0  0
 20 43  1  0  0  0  0
 21 22  1  0  0  0  0
 21 44  1  0  0  0  0
 22 23  1  0  0  0  0
 22 26  2  0  0  0  0
 23 24  1  0  0  0  0
 23 25  2  0  0  0  0
 26 27  1  0  0  0  0
 26 28  1  0  0  0  0
 27 45  1  0  0  0  0
 28 29  1  0  0  0  0
 29 46  1  0  0  0  0
 29 47  1  0  0  0  0
 29 48  1  0  0  0  0
M  CHG  2  23   1  24  -1
M  END
$$$$
