18639-1
 OpenBabel02232411163D
Structure written by MMmdl.
 48 49  0  0  0  0  0  0  0  0999 V2000
   23.1810   10.8070   29.0570 C   0  0  0  0  0  0  0  0  0  0  0  0
   23.4770   11.0300   30.5250 C   0  0  0  0  0  0  0  0  0  0  0  0
   22.2200   11.1420   31.2940 O   0  0  0  0  0  0  0  0  0  0  0  0
   21.5580   10.0140   31.6370 C   0  0  0  0  0  0  0  0  0  0  0  0
   22.0220    8.8170   31.2120 N   0  0  0  0  0  0  0  0  0  0  0  0
   21.2790    7.6910   31.5290 C   0  0  0  0  0  0  0  0  0  0  0  0
   20.1150    7.7460   32.2870 C   0  0  0  0  0  0  0  0  0  0  0  0
   19.6460    9.0060   32.7480 C   0  0  0  0  0  0  0  0  0  0  0  0
   18.4920    9.0650   33.4870 N   0  0  0  0  0  0  0  0  0  0  0  0
   20.3770   10.1920   32.4170 C   0  0  0  0  0  0  0  0  0  0  0  0
   19.9850   11.4970   32.7830 C   0  0  0  0  0  0  0  0  0  0  0  0
   19.7140   12.5950   33.0440 N   0  0  0  0  0  0  0  0  0  0  0  0
   21.8560    6.5260   30.9760 N   0  0  0  0  0  0  0  0  0  0  0  0
   21.2770    5.2430   30.9010 C   0  0  0  0  0  0  0  0  0  0  0  0
   20.1900    4.9800   31.3690 O   0  0  0  0  0  0  0  0  0  0  0  0
   22.1160    4.2510   30.1040 C   0  0  0  0  0  0  0  0  0  0  0  0
   23.5030    4.0290   30.6340 C   0  0  0  0  0  0  0  0  0  0  0  0
   24.5690    4.9140   30.2790 C   0  0  0  0  0  0  0  0  0  0  0  0
   24.1700    5.9450   29.4380 O   0  0  0  0  0  0  0  0  0  0  0  0
   25.0800    7.0710   29.2790 C   0  0  0  0  0  0  0  0  0  0  0  0
   25.8660    4.7090   30.7220 C   0  0  0  0  0  0  0  0  0  0  0  0
   26.1470    3.6090   31.5600 C   0  0  0  0  0  0  0  0  0  0  0  0
   27.5190    3.3900   32.0260 N   0  3  0  0  0  0  0  0  0  0  0  0
   27.7010    2.5930   32.9330 O   0  5  0  0  0  0  0  0  0  0  0  0
   28.4260    4.0090   31.4820 O   0  0  0  0  0  0  0  0  0  0  0  0
   25.1040    2.7230   31.9210 C   0  0  0  0  0  0  0  0  0  0  0  0
   23.7910    2.9410   31.4430 C   0  0  0  0  0  0  0  0  0  0  0  0
   25.4980    1.7030   32.7340 O   0  0  0  0  0  0  0  0  0  0  0  0
   24.5270    0.6540   33.0260 C   0  0  0  0  0  0  0  0  0  0  0  0
   24.1370   10.8430   28.4780 H   0  0  0  0  0  0  0  0  0  0  0  0
   22.5040   11.5950   28.6560 H   0  0  0  0  0  0  0  0  0  0  0  0
   22.7080    9.8110   28.8870 H   0  0  0  0  0  0  0  0  0  0  0  0
   23.9010   12.0440   30.7220 H   0  0  0  0  0  0  0  0  0  0  0  0
   24.1080   10.2190   30.9550 H   0  0  0  0  0  0  0  0  0  0  0  0
   19.5470    6.8420   32.5150 H   0  0  0  0  0  0  0  0  0  0  0  0
   17.9900    8.1980   33.7610 H   0  0  0  0  0  0  0  0  0  0  0  0
   18.1020    9.9550   33.7960 H   0  0  0  0  0  0  0  0  0  0  0  0
   22.7720    6.6800   30.4820 H   0  0  0  0  0  0  0  0  0  0  0  0
   21.5690    3.2700   30.0750 H   0  0  0  0  0  0  0  0  0  0  0  0
   22.1920    4.6460   29.0510 H   0  0  0  0  0  0  0  0  0  0  0  0
   24.4260    7.8060   28.7560 H   0  0  0  0  0  0  0  0  0  0  0  0
   25.9350    6.7570   28.6440 H   0  0  0  0  0  0  0  0  0  0  0  0
   25.4030    7.4580   30.2700 H   0  0  0  0  0  0  0  0  0  0  0  0
   26.6830    5.3770   30.4240 H   0  0  0  0  0  0  0  0  0  0  0  0
   22.9980    2.2350   31.7040 H   0  0  0  0  0  0  0  0  0  0  0  0
   25.1460   -0.0590   33.6210 H   0  0  0  0  0  0  0  0  0  0  0  0
   24.1750    0.1850   32.0810 H   0  0  0  0  0  0  0  0  0  0  0  0
   23.6930    1.0640   33.6350 H   0  0  0  0  0  0  0  0  0  0  0  0
  1  2  1  0  0  0  0
  1 30  1  0  0  0  0
  1 31  1  0  0  0  0
  1 32  1  0  0  0  0
  2  3  1  0  0  0  0
  2 33  1  0  0  0  0
  2 34  1  0  0  0  0
  3  4  1  0  0  0  0
  4 10  2  0  0  0  0
  4  5  1  0  0  0  0
  5  6  2  0  0  0  0
  6  7  1  0  0  0  0
  6 13  1  0  0  0  0
  7  8  2  0  0  0  0
  7 35  1  0  0  0  0
  8  9  1  0  0  0  0
  8 10  1  0  0  0  0
  9 36  1  0  0  0  0
  9 37  1  0  0  0  0
 10 11  1  0  0  0  0
 11 12  3  0  0  0  0
 13 14  1  0  0  0  0
 13 38  1  0  0  0  0
 14 15  2  0  0  0  0
 14 16  1  0  0  0  0
 16 17  1  0  0  0  0
 16 39  1  0  0  0  0
 16 40  1  0  0  0  0
 17 27  2  0  0  0  0
 17 18  1  0  0  0  0
 18 19  1  0  0  0  0
 18 21  2  0  0  0  0
 19 20  1  0  0  0  0
 20 41  1  0  0  0  0
 20 42  1  0  0  0  0
 20 43  1  0  0  0  0
 21 22  1  0  0  0  0
 21 44  1  0  0  0  0
 22 23  1  0  0  0  0
 22 26  2  0  0  0  0
 23 24  1  0  0  0  0
 23 25  2  0  0  0  0
 26 27  1  0  0  0  0
 26 28  1  0  0  0  0
 27 45  1  0  0  0  0
 28 29  1  0  0  0  0
 29 46  1  0  0  0  0
 29 47  1  0  0  0  0
 29 48  1  0  0  0  0
M  CHG  2  23   1  24  -1
M  END
$$$$
