26.pdb
 OpenBabel02232411163D

 43 46  0  0  0  0  0  0  0  0999 V2000
    3.5990  -50.0380    5.9960 O   0  5  0  0  0  0  0  0  0  0  0  0
    2.9290  -49.1190    6.4900 C   0  0  0  0  0  0  0  0  0  0  0  0
    3.3240  -48.1140    7.0910 O   0  0  0  0  0  0  0  0  0  0  0  0
    1.3940  -49.3120    6.3500 C   0  0  0  0  0  0  0  0  0  0  0  0
    1.0230  -50.6300    6.7000 O   0  0  0  0  0  0  0  0  0  0  0  0
   -0.3620  -50.7020    6.5250 C   0  0  0  0  0  0  0  0  0  0  0  0
   -1.1730  -51.8050    6.7730 C   0  0  0  0  0  0  0  0  0  0  0  0
   -0.7920  -52.7580    7.1410 H   0  0  0  0  0  0  0  0  0  0  0  0
   -2.5380  -51.6310    6.5280 C   0  0  0  0  0  0  0  0  0  0  0  0
   -3.2280  -52.4570    6.7120 H   0  0  0  0  0  0  0  0  0  0  0  0
   -3.0490  -50.4090    6.0540 C   0  0  0  0  0  0  0  0  0  0  0  0
   -4.1230  -50.3180    5.8740 H   0  0  0  0  0  0  0  0  0  0  0  0
   -2.2210  -49.3110    5.8110 C   0  0  0  0  0  0  0  0  0  0  0  0
   -2.6480  -48.3760    5.4480 H   0  0  0  0  0  0  0  0  0  0  0  0
   -0.8520  -49.4460    6.0520 C   0  0  0  0  0  0  0  0  0  0  0  0
    0.3090  -48.5710    5.9590 C   0  0  0  0  0  0  0  0  0  0  0  0
    0.2350  -47.1560    5.5120 C   0  0  0  0  0  0  0  0  0  0  0  0
    1.1040  -46.9100    4.8540 H   0  0  0  0  0  0  0  0  0  0  0  0
   -0.7090  -47.0210    4.9210 H   0  0  0  0  0  0  0  0  0  0  0  0
    0.2240  -46.1520    6.6780 C   0  0  0  0  0  0  0  0  0  0  0  0
    0.1980  -45.1170    6.2650 H   0  0  0  0  0  0  0  0  0  0  0  0
    1.1600  -46.2850    7.2780 H   0  0  0  0  0  0  0  0  0  0  0  0
   -0.9520  -46.3150    7.6360 C   0  0  0  0  0  0  0  0  0  0  0  0
   -0.8260  -45.6880    8.5450 H   0  0  0  0  0  0  0  0  0  0  0  0
   -1.1830  -47.3790    7.8500 H   0  0  0  0  0  0  0  0  0  0  0  0
   -2.1220  -45.7560    6.9290 O   0  0  0  0  0  0  0  0  0  0  0  0
   -3.3190  -45.7740    7.5840 C   0  0  0  0  0  0  0  0  0  0  0  0
   -4.3440  -45.0280    6.8880 C   0  0  0  0  0  0  0  0  0  0  0  0
   -5.6310  -44.9380    7.4830 C   0  0  0  0  0  0  0  0  0  0  0  0
   -5.8760  -45.5780    8.7370 C   0  0  0  0  0  0  0  0  0  0  0  0
   -6.8640  -45.4930    9.1870 H   0  0  0  0  0  0  0  0  0  0  0  0
   -4.8860  -46.3140    9.3420 C   0  0  0  0  0  0  0  0  0  0  0  0
   -5.0920  -46.8410   10.2760 H   0  0  0  0  0  0  0  0  0  0  0  0
   -3.5880  -46.4180    8.7770 C   0  0  0  0  0  0  0  0  0  0  0  0
   -2.8550  -47.0140    9.3100 H   0  0  0  0  0  0  0  0  0  0  0  0
   -6.6630  -44.2430    6.7790 C   0  0  0  0  0  0  0  0  0  0  0  0
   -7.6560  -44.1890    7.2220 H   0  0  0  0  0  0  0  0  0  0  0  0
   -6.4110  -43.6720    5.5540 C   0  0  0  0  0  0  0  0  0  0  0  0
   -7.1990  -43.1550    5.0120 H   0  0  0  0  0  0  0  0  0  0  0  0
   -5.1200  -43.7550    4.9680 C   0  0  0  0  0  0  0  0  0  0  0  0
   -4.9440  -43.2870    4.0030 H   0  0  0  0  0  0  0  0  0  0  0  0
   -4.1130  -44.4300    5.6170 C   0  0  0  0  0  0  0  0  0  0  0  0
   -3.1320  -44.5410    5.1540 H   0  0  0  0  0  0  0  0  0  0  0  0
  1  2  1  0  0  0  0
  2  3  2  0  0  0  0
  4  2  1  0  0  0  0
  4  5  1  0  0  0  0
  6  7  1  0  0  0  0
  6  5  1  0  0  0  0
  7  8  1  0  0  0  0
  9 10  1  0  0  0  0
  9  7  2  0  0  0  0
 11  9  1  0  0  0  0
 12 11  1  0  0  0  0
 13 11  2  0  0  0  0
 13 15  1  0  0  0  0
 14 13  1  0  0  0  0
 15  6  2  0  0  0  0
 16 15  1  0  0  0  0
 16  4  2  0  0  0  0
 17 16  1  0  0  0  0
 17 20  1  0  0  0  0
 18 17  1  0  0  0  0
 19 17  1  0  0  0  0
 20 22  1  0  0  0  0
 20 23  1  0  0  0  0
 21 20  1  0  0  0  0
 23 25  1  0  0  0  0
 23 24  1  0  0  0  0
 26 23  1  0  0  0  0
 26 27  1  0  0  0  0
 27 34  1  0  0  0  0
 28 27  2  0  0  0  0
 28 29  1  0  0  0  0
 29 30  2  0  0  0  0
 30 32  1  0  0  0  0
 30 31  1  0  0  0  0
 32 33  1  0  0  0  0
 34 35  1  0  0  0  0
 34 32  2  0  0  0  0
 36 29  1  0  0  0  0
 36 37  1  0  0  0  0
 38 36  2  0  0  0  0
 39 38  1  0  0  0  0
 40 42  2  0  0  0  0
 40 38  1  0  0  0  0
 41 40  1  0  0  0  0
 42 28  1  0  0  0  0
 43 42  1  0  0  0  0
M  CHG  1   1  -1
M  END
$$$$
