CAT-4a
 OpenBabel02232411143D
Structure written by MMmdl.
 46 49  0  0  1  0  0  0  0  0999 V2000
   11.5440   -2.5340    1.4330 C   0  0  0  0  0  0  0  0  0  0  0  0
   12.8820   -2.5780    0.8100 N   0  0  0  0  0  0  0  0  0  0  0  0
   14.0780   -2.4890    1.5180 C   0  0  0  0  0  0  0  0  0  0  0  0
   14.2490   -2.4870    2.8670 N   0  0  0  0  0  0  0  0  0  0  0  0
   15.1550   -2.4770    0.6280 N   0  3  0  0  0  0  0  0  0  0  0  0
   14.7000   -2.9850   -0.7300 C   0  0  2  0  0  0  0  0  0  0  0  0
   15.0670   -4.4580   -0.7290 C   0  0  0  0  0  0  0  0  0  0  0  0
   16.4250   -4.8080   -0.7690 C   0  0  0  0  0  0  0  0  0  0  0  0
   16.8160   -6.1280   -0.5320 C   0  0  0  0  0  0  0  0  0  0  0  0
   15.8580   -7.1060   -0.2430 C   0  0  0  0  0  0  0  0  0  0  0  0
   14.5030   -6.7600   -0.2070 C   0  0  0  0  0  0  0  0  0  0  0  0
   14.1050   -5.4460   -0.4640 C   0  0  0  0  0  0  0  0  0  0  0  0
   15.2080   -2.0540   -1.8090 C   0  0  0  0  0  0  0  0  0  0  0  0
   15.7230   -2.5340   -3.0150 C   0  0  0  0  0  0  0  0  0  0  0  0
   16.1200   -1.6170   -3.9960 C   0  0  0  0  0  0  0  0  0  0  0  0
   16.0080   -0.2430   -3.7910 C   0  0  0  0  0  0  0  0  0  0  0  0
   15.4770    0.2500   -2.5840 C   0  0  0  0  0  0  0  0  0  0  0  0
   15.3010    1.7020   -2.3580 C   0  0  0  0  0  0  0  0  0  0  0  0
   14.8050    2.5280   -3.3820 C   0  0  0  0  0  0  0  0  0  0  0  0
   14.5690    3.8830   -3.1380 C   0  0  0  0  0  0  0  0  0  0  0  0
   14.8240    4.4280   -1.8760 C   0  0  0  0  0  0  0  0  0  0  0  0
   15.3500    3.6200   -0.8630 C   0  0  0  0  0  0  0  0  0  0  0  0
   15.5910    2.2650   -1.1040 C   0  0  0  0  0  0  0  0  0  0  0  0
   15.0840   -0.6680   -1.6010 C   0  0  0  0  0  0  0  0  0  0  0  0
   13.1490   -2.7940   -0.6310 C   0  0  0  0  0  0  0  0  0  0  0  0
   12.2870   -2.7750   -1.4480 O   0  0  0  0  0  0  0  0  0  0  0  0
   11.1050   -1.5100    1.3020 H   0  0  0  0  0  0  0  0  0  0  0  0
   10.8830   -3.2980    0.9410 H   0  0  0  0  0  0  0  0  0  0  0  0
   11.6060   -2.7760    2.5270 H   0  0  0  0  0  0  0  0  0  0  0  0
   15.2320   -2.3730    3.2480 H   0  0  0  0  0  0  0  0  0  0  0  0
   16.1070   -2.7560    0.9920 H   0  0  0  0  0  0  0  0  0  0  0  0
   17.1760   -4.0330   -0.9340 H   0  0  0  0  0  0  0  0  0  0  0  0
   17.8820   -6.3690   -0.5090 H   0  0  0  0  0  0  0  0  0  0  0  0
   16.1540   -8.1400   -0.0320 H   0  0  0  0  0  0  0  0  0  0  0  0
   13.7450   -7.5150    0.0260 H   0  0  0  0  0  0  0  0  0  0  0  0
   13.0400   -5.2130   -0.4280 H   0  0  0  0  0  0  0  0  0  0  0  0
   15.8160   -3.6080   -3.1890 H   0  0  0  0  0  0  0  0  0  0  0  0
   16.5270   -1.9760   -4.9410 H   0  0  0  0  0  0  0  0  0  0  0  0
   16.3410    0.4460   -4.5750 H   0  0  0  0  0  0  0  0  0  0  0  0
   14.5880    2.1120   -4.3710 H   0  0  0  0  0  0  0  0  0  0  0  0
   14.1710    4.5160   -3.9390 H   0  0  0  0  0  0  0  0  0  0  0  0
   14.5970    5.4780   -1.6750 H   0  0  0  0  0  0  0  0  0  0  0  0
   15.5650    4.0360    0.1240 H   0  0  0  0  0  0  0  0  0  0  0  0
   15.9960    1.6380   -0.3070 H   0  0  0  0  0  0  0  0  0  0  0  0
   14.6800   -0.3090   -0.6550 H   0  0  0  0  0  0  0  0  0  0  0  0
   13.5340   -2.0720    3.5130 H   0  0  0  0  0  0  0  0  0  0  0  0
  1  2  1  0  0  0  0
  1 27  1  0  0  0  0
  1 28  1  0  0  0  0
  1 29  1  0  0  0  0
  2  3  1  0  0  0  0
  2 25  1  0  0  0  0
  3  4  1  0  0  0  0
  3  5  2  0  0  0  0
  4 30  1  0  0  0  0
  4 46  1  0  0  0  0
  5  6  1  0  0  0  0
  5 31  1  0  0  0  0
  6  7  1  6  0  0  0
  6 13  1  0  0  0  0
  6 25  1  0  0  0  0
  7  8  2  0  0  0  0
  7 12  1  0  0  0  0
  8  9  1  0  0  0  0
  8 32  1  0  0  0  0
  9 10  2  0  0  0  0
  9 33  1  0  0  0  0
 10 11  1  0  0  0  0
 10 34  1  0  0  0  0
 11 12  2  0  0  0  0
 11 35  1  0  0  0  0
 12 36  1  0  0  0  0
 13 14  2  0  0  0  0
 13 24  1  0  0  0  0
 14 15  1  0  0  0  0
 14 37  1  0  0  0  0
 15 16  2  0  0  0  0
 15 38  1  0  0  0  0
 16 17  1  0  0  0  0
 16 39  1  0  0  0  0
 17 18  1  0  0  0  0
 17 24  2  0  0  0  0
 18 19  2  0  0  0  0
 18 23  1  0  0  0  0
 19 20  1  0  0  0  0
 19 40  1  0  0  0  0
 20 21  2  0  0  0  0
 20 41  1  0  0  0  0
 21 22  1  0  0  0  0
 21 42  1  0  0  0  0
 22 23  2  0  0  0  0
 22 43  1  0  0  0  0
 23 44  1  0  0  0  0
 24 45  1  0  0  0  0
 25 26  2  0  0  0  0
M  CHG  1   5   1
M  END
$$$$
