p38a_2p
 OpenBabel02232411163D
Structure written by MMmdl.
 58 61  0  0  0  0  0  0  0  0999 V2000
   38.2340   36.5400   17.1270 C   0  0  0  0  0  0  0  0  0  0  0  0
   34.6900   35.1540   21.2050 C   0  0  0  0  0  0  0  0  0  0  0  0
   37.4060   36.0950   18.1530 C   0  0  0  0  0  0  0  0  0  0  0  0
   34.2160   39.2020   23.8050 C   0  0  0  0  0  0  0  0  0  0  0  0
   34.7000   38.0320   21.3550 C   0  0  0  0  0  0  0  0  0  0  0  0
   34.9640   37.3900   20.0960 C   0  0  0  0  0  0  0  0  0  0  0  0
   37.6240   36.7520   15.8820 C   0  0  0  0  0  0  0  0  0  0  0  0
   36.2690   36.5170   15.6380 C   0  0  0  0  0  0  0  0  0  0  0  0
   35.4590   36.0610   16.6830 C   0  0  0  0  0  0  0  0  0  0  0  0
   34.5540   37.2460   22.5370 C   0  0  0  0  0  0  0  0  0  0  0  0
   34.5950   39.4410   21.5030 C   0  0  0  0  0  0  0  0  0  0  0  0
   34.9880   36.0380   20.0470 C   0  0  0  0  0  0  0  0  0  0  0  0
   36.0340   35.8440   17.9380 C   0  0  0  0  0  0  0  0  0  0  0  0
   37.9030   35.9040   19.3690 F   0  0  0  0  0  0  0  0  0  0  0  0
   35.2470   35.2430   18.9310 O   0  0  0  0  0  0  0  0  0  0  0  0
   34.3670   40.0410   22.6810 N   0  0  0  0  0  0  0  0  0  0  0  0
   34.5230   33.9570   21.1530 O   0  0  0  0  0  0  0  0  0  0  0  0
   34.6230   35.8430   22.4700 N   0  0  0  0  0  0  0  0  0  0  0  0
   34.3370   37.8280   23.7590 N   0  0  0  0  0  0  0  0  0  0  0  0
   33.8700   39.7950   24.9960 N   0  0  0  0  0  0  0  0  0  0  0  0
   39.2950   36.7500   17.2920 H   0  0  0  0  0  0  0  0  0  0  0  0
   35.1480   38.0190   19.2240 H   0  0  0  0  0  0  0  0  0  0  0  0
   35.8300   36.7020   14.6560 H   0  0  0  0  0  0  0  0  0  0  0  0
   34.3910   35.8900   16.5140 H   0  0  0  0  0  0  0  0  0  0  0  0
   34.6970   40.0950   20.6200 H   0  0  0  0  0  0  0  0  0  0  0  0
   33.8930   40.8270   25.0890 H   0  0  0  0  0  0  0  0  0  0  0  0
   38.3680   37.2380   14.8920 F   0  0  0  0  0  0  0  0  0  0  0  0
   32.5960   38.9950   28.5060 C   0  0  0  0  0  0  0  0  0  0  0  0
   32.6290   39.6480   27.1170 C   0  0  0  0  0  0  0  0  0  0  0  0
   33.7680   39.0300   26.2750 C   0  0  0  0  0  0  0  0  0  0  0  0
   35.1080   39.0960   27.0420 C   0  0  0  0  0  0  0  0  0  0  0  0
   34.9420   38.4700   28.4320 C   0  0  0  0  0  0  0  0  0  0  0  0
   33.8730   39.1030   29.1750 O   0  0  0  0  0  0  0  0  0  0  0  0
   32.3120   37.9190   28.4270 H   0  0  0  0  0  0  0  0  0  0  0  0
   31.9150   39.5470   29.1940 H   0  0  0  0  0  0  0  0  0  0  0  0
   32.7860   40.7470   27.2240 H   0  0  0  0  0  0  0  0  0  0  0  0
   31.6530   39.4770   26.6020 H   0  0  0  0  0  0  0  0  0  0  0  0
   33.5160   37.9560   26.0480 H   0  0  0  0  0  0  0  0  0  0  0  0
   35.8850   38.5300   26.4750 H   0  0  0  0  0  0  0  0  0  0  0  0
   35.4350   40.1580   27.1380 H   0  0  0  0  0  0  0  0  0  0  0  0
   34.7280   37.3780   28.3470 H   0  0  0  0  0  0  0  0  0  0  0  0
   35.8290   38.6670   29.0760 H   0  0  0  0  0  0  0  0  0  0  0  0
   34.5870   35.0450   23.7380 C   0  0  0  0  0  0  0  0  0  0  0  0
   35.0760   34.0530   23.5490 H   0  0  0  0  0  0  0  0  0  0  0  0
   35.1720   35.5960   24.5280 H   0  0  0  0  0  0  0  0  0  0  0  0
   33.1440   34.8300   24.2420 C   0  0  0  0  0  0  0  0  0  0  0  0
   32.6580   35.8310   24.3750 H   0  0  0  0  0  0  0  0  0  0  0  0
   32.5660   34.2420   23.4900 H   0  0  0  0  0  0  0  0  0  0  0  0
   33.1890   34.1010   25.5890 C   0  0  0  0  0  0  0  0  0  0  0  0
   33.7560   34.7420   26.3250 H   0  0  0  0  0  0  0  0  0  0  0  0
   33.7920   33.1590   25.4860 H   0  0  0  0  0  0  0  0  0  0  0  0
   31.5970   33.7280   26.2320 S   0  0  0  0  0  0  0  0  0  0  0  0
   31.7240   33.1190   27.5820 O   0  0  0  0  0  0  0  0  0  0  0  0
   30.8820   32.7980   25.3220 O   0  0  0  0  0  0  0  0  0  0  0  0
   30.7540   35.2440   26.3230 C   0  0  0  0  0  0  0  0  0  0  0  0
   30.3910   35.6000   25.3250 H   0  0  0  0  0  0  0  0  0  0  0  0
   29.8520   35.1980   26.9880 H   0  0  0  0  0  0  0  0  0  0  0  0
   31.4000   36.0630   26.7350 H   0  0  0  0  0  0  0  0  0  0  0  0
  1  3  2  0  0  0  0
  1  7  1  0  0  0  0
  1 21  1  0  0  0  0
  2 12  1  0  0  0  0
  2 17  2  0  0  0  0
  2 18  1  0  0  0  0
  3 13  1  0  0  0  0
  3 14  1  0  0  0  0
  4 16  2  0  0  0  0
  4 19  1  0  0  0  0
  4 20  1  0  0  0  0
  5  6  1  0  0  0  0
  5 10  1  0  0  0  0
  5 11  2  0  0  0  0
  6 12  2  0  0  0  0
  6 22  1  0  0  0  0
  7  8  2  0  0  0  0
  7 27  1  0  0  0  0
  8  9  1  0  0  0  0
  8 23  1  0  0  0  0
  9 13  2  0  0  0  0
  9 24  1  0  0  0  0
 10 18  1  0  0  0  0
 10 19  2  0  0  0  0
 11 16  1  0  0  0  0
 11 25  1  0  0  0  0
 12 15  1  0  0  0  0
 13 15  1  0  0  0  0
 18 43  1  0  0  0  0
 20 26  1  0  0  0  0
 20 30  1  0  0  0  0
 28 29  1  0  0  0  0
 28 33  1  0  0  0  0
 28 34  1  0  0  0  0
 28 35  1  0  0  0  0
 29 30  1  0  0  0  0
 29 36  1  0  0  0  0
 29 37  1  0  0  0  0
 30 31  1  0  0  0  0
 30 38  1  0  0  0  0
 31 32  1  0  0  0  0
 31 39  1  0  0  0  0
 31 40  1  0  0  0  0
 32 33  1  0  0  0  0
 32 41  1  0  0  0  0
 32 42  1  0  0  0  0
 43 44  1  0  0  0  0
 43 45  1  0  0  0  0
 43 46  1  0  0  0  0
 46 47  1  0  0  0  0
 46 48  1  0  0  0  0
 46 49  1  0  0  0  0
 49 50  1  0  0  0  0
 49 51  1  0  0  0  0
 49 52  1  0  0  0  0
 52 53  2  0  0  0  0
 52 54  2  0  0  0  0
 52 55  1  0  0  0  0
 55 56  1  0  0  0  0
 55 57  1  0  0  0  0
 55 58  1  0  0  0  0
M  END
$$$$
