18632-1
 OpenBabel02232411163D
Structure written by MMmdl.
 42 43  0  0  0  0  0  0  0  0999 V2000
   23.8030   12.7330   30.3570 C   0  0  0  0  0  0  0  0  0  0  0  0
   23.3720   11.2810   30.4320 C   0  0  0  0  0  0  0  0  0  0  0  0
   22.1300   11.3440   31.2460 O   0  0  0  0  0  0  0  0  0  0  0  0
   21.5180   10.1900   31.5810 C   0  0  0  0  0  0  0  0  0  0  0  0
   22.0150    9.0120   31.1320 N   0  0  0  0  0  0  0  0  0  0  0  0
   21.3060    7.8600   31.4410 C   0  0  0  0  0  0  0  0  0  0  0  0
   20.1520    7.8720   32.2180 C   0  0  0  0  0  0  0  0  0  0  0  0
   19.6460    9.1110   32.6970 C   0  0  0  0  0  0  0  0  0  0  0  0
   18.5030    9.1330   33.4540 N   0  0  0  0  0  0  0  0  0  0  0  0
   20.3330   10.3220   32.3660 C   0  0  0  0  0  0  0  0  0  0  0  0
   19.8930   11.6130   32.7250 C   0  0  0  0  0  0  0  0  0  0  0  0
   19.5800   12.7020   32.9760 N   0  0  0  0  0  0  0  0  0  0  0  0
   21.8920    6.7120   30.8550 N   0  0  0  0  0  0  0  0  0  0  0  0
   21.3440    5.4060   30.8010 C   0  0  0  0  0  0  0  0  0  0  0  0
   20.3020    5.1120   31.3470 O   0  0  0  0  0  0  0  0  0  0  0  0
   22.1610    4.4460   29.9510 C   0  0  0  0  0  0  0  0  0  0  0  0
   23.4090    3.9790   30.6580 C   0  0  0  0  0  0  0  0  0  0  0  0
   23.3820    2.7930   31.4080 C   0  0  0  0  0  0  0  0  0  0  0  0
   24.5470    2.3940   32.0740 C   0  0  0  0  0  0  0  0  0  0  0  0
   24.6750    1.2770   32.8660 O   0  0  0  0  0  0  0  0  0  0  0  0
   23.6050    0.2960   32.8460 C   0  0  0  0  0  0  0  0  0  0  0  0
   25.7390    3.1480   32.0070 C   0  0  0  0  0  0  0  0  0  0  0  0
   25.7460    4.3050   31.2380 C   0  0  0  0  0  0  0  0  0  0  0  0
   24.5900    4.7210   30.5590 C   0  0  0  0  0  0  0  0  0  0  0  0
   24.7090   12.8050   29.7040 H   0  0  0  0  0  0  0  0  0  0  0  0
   24.0560   13.1350   31.3630 H   0  0  0  0  0  0  0  0  0  0  0  0
   23.0010   13.3650   29.9070 H   0  0  0  0  0  0  0  0  0  0  0  0
   24.1100   10.6420   30.9670 H   0  0  0  0  0  0  0  0  0  0  0  0
   23.0980   10.8640   29.4370 H   0  0  0  0  0  0  0  0  0  0  0  0
   19.6170    6.9490   32.4490 H   0  0  0  0  0  0  0  0  0  0  0  0
   18.0060    8.2570   33.7060 H   0  0  0  0  0  0  0  0  0  0  0  0
   18.0900   10.0130   33.7650 H   0  0  0  0  0  0  0  0  0  0  0  0
   22.7940    6.8850   30.3660 H   0  0  0  0  0  0  0  0  0  0  0  0
   21.5160    3.5650   29.6940 H   0  0  0  0  0  0  0  0  0  0  0  0
   22.4470    4.9500   28.9880 H   0  0  0  0  0  0  0  0  0  0  0  0
   22.4720    2.2010   31.4690 H   0  0  0  0  0  0  0  0  0  0  0  0
   24.0010   -0.4810   33.5440 H   0  0  0  0  0  0  0  0  0  0  0  0
   23.4910   -0.1080   31.8180 H   0  0  0  0  0  0  0  0  0  0  0  0
   22.6610    0.7370   33.2310 H   0  0  0  0  0  0  0  0  0  0  0  0
   26.6360    2.8220   32.5380 H   0  0  0  0  0  0  0  0  0  0  0  0
   26.6620    4.8990   31.1520 H   0  0  0  0  0  0  0  0  0  0  0  0
   24.6440    5.6220   29.9450 H   0  0  0  0  0  0  0  0  0  0  0  0
  1  2  1  0  0  0  0
  1 25  1  0  0  0  0
  1 26  1  0  0  0  0
  1 27  1  0  0  0  0
  2  3  1  0  0  0  0
  2 28  1  0  0  0  0
  2 29  1  0  0  0  0
  3  4  1  0  0  0  0
  4 10  2  0  0  0  0
  4  5  1  0  0  0  0
  5  6  2  0  0  0  0
  6  7  1  0  0  0  0
  6 13  1  0  0  0  0
  7  8  2  0  0  0  0
  7 30  1  0  0  0  0
  8  9  1  0  0  0  0
  8 10  1  0  0  0  0
  9 31  1  0  0  0  0
  9 32  1  0  0  0  0
 10 11  1  0  0  0  0
 11 12  3  0  0  0  0
 13 14  1  0  0  0  0
 13 33  1  0  0  0  0
 14 15  2  0  0  0  0
 14 16  1  0  0  0  0
 16 17  1  0  0  0  0
 16 34  1  0  0  0  0
 16 35  1  0  0  0  0
 17 24  2  0  0  0  0
 17 18  1  0  0  0  0
 18 19  2  0  0  0  0
 18 36  1  0  0  0  0
 19 20  1  0  0  0  0
 19 22  1  0  0  0  0
 20 21  1  0  0  0  0
 21 37  1  0  0  0  0
 21 38  1  0  0  0  0
 21 39  1  0  0  0  0
 22 23  2  0  0  0  0
 22 40  1  0  0  0  0
 23 24  1  0  0  0  0
 23 41  1  0  0  0  0
 24 42  1  0  0  0  0
M  END
$$$$
