17124-1
 OpenBabel02232411163D
Structure written by MMmdl.
 46 47  0  0  0  0  0  0  0  0999 V2000
   23.1820   10.8410   29.0680 C   0  0  0  0  0  0  0  0  0  0  0  0
   23.4590   11.0700   30.5390 C   0  0  0  0  0  0  0  0  0  0  0  0
   22.1960   11.1700   31.3000 O   0  0  0  0  0  0  0  0  0  0  0  0
   21.5380   10.0380   31.6380 C   0  0  0  0  0  0  0  0  0  0  0  0
   22.0000    8.8440   31.2020 N   0  0  0  0  0  0  0  0  0  0  0  0
   21.2520    7.7170   31.5050 C   0  0  0  0  0  0  0  0  0  0  0  0
   20.0950    7.7660   32.2770 C   0  0  0  0  0  0  0  0  0  0  0  0
   19.6320    9.0210   32.7530 C   0  0  0  0  0  0  0  0  0  0  0  0
   18.4850    9.0740   33.5050 N   0  0  0  0  0  0  0  0  0  0  0  0
   20.3580   10.2100   32.4230 C   0  0  0  0  0  0  0  0  0  0  0  0
   19.9620   11.5130   32.7900 C   0  0  0  0  0  0  0  0  0  0  0  0
   19.6850   12.6100   33.0490 N   0  0  0  0  0  0  0  0  0  0  0  0
   21.8090    6.5590   30.9200 N   0  0  0  0  0  0  0  0  0  0  0  0
   21.2010    5.2880   30.8170 C   0  0  0  0  0  0  0  0  0  0  0  0
   20.1240    5.0340   31.3130 O   0  0  0  0  0  0  0  0  0  0  0  0
   22.0000    4.3090   29.9660 C   0  0  0  0  0  0  0  0  0  0  0  0
   23.3480    3.9870   30.5390 C   0  0  0  0  0  0  0  0  0  0  0  0
   24.4630    4.8250   30.2800 C   0  0  0  0  0  0  0  0  0  0  0  0
   24.1650    5.9030   29.4580 O   0  0  0  0  0  0  0  0  0  0  0  0
   25.1550    6.9620   29.3450 C   0  0  0  0  0  0  0  0  0  0  0  0
   25.7310    4.5440   30.8000 C   0  0  0  0  0  0  0  0  0  0  0  0
   25.9000    3.4110   31.5930 C   0  0  0  0  0  0  0  0  0  0  0  0
   27.6240    3.0300   32.2960 Br  0  0  0  0  0  0  0  0  0  0  0  0
   24.8060    2.5600   31.8550 C   0  0  0  0  0  0  0  0  0  0  0  0
   23.5390    2.8470   31.3220 C   0  0  0  0  0  0  0  0  0  0  0  0
   25.1180    1.4930   32.6630 O   0  0  0  0  0  0  0  0  0  0  0  0
   24.1100    0.4630   32.8420 C   0  0  0  0  0  0  0  0  0  0  0  0
   22.7530    9.8280   28.8900 H   0  0  0  0  0  0  0  0  0  0  0  0
   22.4780   11.6030   28.6650 H   0  0  0  0  0  0  0  0  0  0  0  0
   24.1410   10.9180   28.4980 H   0  0  0  0  0  0  0  0  0  0  0  0
   23.8690   12.0890   30.7380 H   0  0  0  0  0  0  0  0  0  0  0  0
   24.0960   10.2680   30.9770 H   0  0  0  0  0  0  0  0  0  0  0  0
   19.5270    6.8610   32.5030 H   0  0  0  0  0  0  0  0  0  0  0  0
   17.9830    8.2070   33.7750 H   0  0  0  0  0  0  0  0  0  0  0  0
   18.0960    9.9630   33.8190 H   0  0  0  0  0  0  0  0  0  0  0  0
   22.7240    6.7110   30.4260 H   0  0  0  0  0  0  0  0  0  0  0  0
   21.4020    3.3680   29.8510 H   0  0  0  0  0  0  0  0  0  0  0  0
   22.1340    4.7710   28.9490 H   0  0  0  0  0  0  0  0  0  0  0  0
   24.5870    7.7340   28.7770 H   0  0  0  0  0  0  0  0  0  0  0  0
   25.4440    7.3380   30.3500 H   0  0  0  0  0  0  0  0  0  0  0  0
   26.0280    6.5920   28.7670 H   0  0  0  0  0  0  0  0  0  0  0  0
   26.5860    5.1950   30.5830 H   0  0  0  0  0  0  0  0  0  0  0  0
   22.6970    2.1780   31.5170 H   0  0  0  0  0  0  0  0  0  0  0  0
   24.6650   -0.2810   33.4640 H   0  0  0  0  0  0  0  0  0  0  0  0
   23.2350    0.8690   33.3950 H   0  0  0  0  0  0  0  0  0  0  0  0
   23.8270    0.0270   31.8600 H   0  0  0  0  0  0  0  0  0  0  0  0
  1  2  1  0  0  0  0
  1 28  1  0  0  0  0
  1 29  1  0  0  0  0
  1 30  1  0  0  0  0
  2  3  1  0  0  0  0
  2 31  1  0  0  0  0
  2 32  1  0  0  0  0
  3  4  1  0  0  0  0
  4 10  2  0  0  0  0
  4  5  1  0  0  0  0
  5  6  2  0  0  0  0
  6  7  1  0  0  0  0
  6 13  1  0  0  0  0
  7  8  2  0  0  0  0
  7 33  1  0  0  0  0
  8  9  1  0  0  0  0
  8 10  1  0  0  0  0
  9 34  1  0  0  0  0
  9 35  1  0  0  0  0
 10 11  1  0  0  0  0
 11 12  3  0  0  0  0
 13 14  1  0  0  0  0
 13 36  1  0  0  0  0
 14 15  2  0  0  0  0
 14 16  1  0  0  0  0
 16 17  1  0  0  0  0
 16 37  1  0  0  0  0
 16 38  1  0  0  0  0
 17 25  2  0  0  0  0
 17 18  1  0  0  0  0
 18 19  1  0  0  0  0
 18 21  2  0  0  0  0
 19 20  1  0  0  0  0
 20 39  1  0  0  0  0
 20 40  1  0  0  0  0
 20 41  1  0  0  0  0
 21 22  1  0  0  0  0
 21 42  1  0  0  0  0
 22 23  1  0  0  0  0
 22 24  2  0  0  0  0
 24 25  1  0  0  0  0
 24 26  1  0  0  0  0
 25 43  1  0  0  0  0
 26 27  1  0  0  0  0
 27 44  1  0  0  0  0
 27 45  1  0  0  0  0
 27 46  1  0  0  0  0
M  END
$$$$
