p38a_2i
 OpenBabel02232411163D
Structure written by MMmdl.
 48 51  0  0  0  0  0  0  0  0999 V2000
   32.0820   39.2710   26.5600 C   0  0  0  0  0  0  0  0  0  0  0  0
   31.6580   38.6530   27.8980 C   0  0  0  0  0  0  0  0  0  0  0  0
   33.8170   39.1070   28.8880 C   0  0  0  0  0  0  0  0  0  0  0  0
   34.3380   39.7530   27.5980 C   0  0  0  0  0  0  0  0  0  0  0  0
   38.2780   36.2350   17.7710 C   0  0  0  0  0  0  0  0  0  0  0  0
   32.3820   39.2310   29.0080 O   0  0  0  0  0  0  0  0  0  0  0  0
   34.3570   35.2480   21.2150 C   0  0  0  0  0  0  0  0  0  0  0  0
   37.1340   35.9060   18.5020 C   0  0  0  0  0  0  0  0  0  0  0  0
   34.1450   39.2540   23.9230 C   0  0  0  0  0  0  0  0  0  0  0  0
   33.6130   39.1370   26.3830 C   0  0  0  0  0  0  0  0  0  0  0  0
   34.4530   38.1040   21.4390 C   0  0  0  0  0  0  0  0  0  0  0  0
   34.5920   37.4700   20.1620 C   0  0  0  0  0  0  0  0  0  0  0  0
   38.1520   36.4090   16.3910 C   0  0  0  0  0  0  0  0  0  0  0  0
   36.9090   36.2450   15.7750 C   0  0  0  0  0  0  0  0  0  0  0  0
   35.7770   35.9290   16.5320 C   0  0  0  0  0  0  0  0  0  0  0  0
   34.2750   37.3040   22.6090 C   0  0  0  0  0  0  0  0  0  0  0  0
   34.4610   39.5150   21.6110 C   0  0  0  0  0  0  0  0  0  0  0  0
   34.5300   36.1190   20.0430 C   0  0  0  0  0  0  0  0  0  0  0  0
   35.8610   35.7610   17.9230 C   0  0  0  0  0  0  0  0  0  0  0  0
   34.1030   35.0930   23.7360 C   0  0  0  0  0  0  0  0  0  0  0  0
   37.2790   35.7190   19.8140 F   0  0  0  0  0  0  0  0  0  0  0  0
   34.6150   35.4410   18.7040 C   0  0  0  0  0  0  0  0  0  0  0  0
   34.3150   40.1010   22.8050 N   0  0  0  0  0  0  0  0  0  0  0  0
   34.2990   34.0320   21.2110 O   0  0  0  0  0  0  0  0  0  0  0  0
   34.2550   35.9130   22.5020 N   0  0  0  0  0  0  0  0  0  0  0  0
   34.1100   37.8770   23.8490 N   0  0  0  0  0  0  0  0  0  0  0  0
   34.0620   39.8620   25.1560 N   0  0  0  0  0  0  0  0  0  0  0  0
   31.5510   38.7460   25.7310 H   0  0  0  0  0  0  0  0  0  0  0  0
   31.8000   40.3500   26.5340 H   0  0  0  0  0  0  0  0  0  0  0  0
   30.6040   38.9090   28.1500 H   0  0  0  0  0  0  0  0  0  0  0  0
   31.8220   37.5500   27.8970 H   0  0  0  0  0  0  0  0  0  0  0  0
   34.0920   38.0270   28.9320 H   0  0  0  0  0  0  0  0  0  0  0  0
   34.1800   39.6550   29.7890 H   0  0  0  0  0  0  0  0  0  0  0  0
   34.1660   40.8570   27.6280 H   0  0  0  0  0  0  0  0  0  0  0  0
   35.4390   39.5790   27.5150 H   0  0  0  0  0  0  0  0  0  0  0  0
   39.2460   36.3900   18.2490 H   0  0  0  0  0  0  0  0  0  0  0  0
   33.8910   38.0500   26.2950 H   0  0  0  0  0  0  0  0  0  0  0  0
   34.7500   38.1090   19.2880 H   0  0  0  0  0  0  0  0  0  0  0  0
   36.8100   36.3860   14.6990 H   0  0  0  0  0  0  0  0  0  0  0  0
   34.8140   35.8300   16.0230 H   0  0  0  0  0  0  0  0  0  0  0  0
   34.5740   40.1720   20.7310 H   0  0  0  0  0  0  0  0  0  0  0  0
   34.8870   35.3740   24.4890 H   0  0  0  0  0  0  0  0  0  0  0  0
   33.0930   35.2690   24.1940 H   0  0  0  0  0  0  0  0  0  0  0  0
   34.2100   34.0040   23.4880 H   0  0  0  0  0  0  0  0  0  0  0  0
   33.9710   40.8980   25.2030 H   0  0  0  0  0  0  0  0  0  0  0  0
   39.0200   36.6960   15.8030 H   0  0  0  0  0  0  0  0  0  0  0  0
   34.5450   34.3270   18.8280 H   0  0  0  0  0  0  0  0  0  0  0  0
   33.7140   35.7630   18.1060 H   0  0  0  0  0  0  0  0  0  0  0  0
  1  2  1  0  0  0  0
  1 10  1  0  0  0  0
  1 28  1  0  0  0  0
  1 29  1  0  0  0  0
  2  6  1  0  0  0  0
  2 30  1  0  0  0  0
  2 31  1  0  0  0  0
  3  4  1  0  0  0  0
  3  6  1  0  0  0  0
  3 32  1  0  0  0  0
  3 33  1  0  0  0  0
  4 10  1  0  0  0  0
  4 34  1  0  0  0  0
  4 35  1  0  0  0  0
  5  8  2  0  0  0  0
  5 13  1  0  0  0  0
  5 36  1  0  0  0  0
  7 18  1  0  0  0  0
  7 24  2  0  0  0  0
  7 25  1  0  0  0  0
  8 19  1  0  0  0  0
  8 21  1  0  0  0  0
  9 23  2  0  0  0  0
  9 26  1  0  0  0  0
  9 27  1  0  0  0  0
 10 27  1  0  0  0  0
 10 37  1  0  0  0  0
 11 12  1  0  0  0  0
 11 16  1  0  0  0  0
 11 17  2  0  0  0  0
 12 18  2  0  0  0  0
 12 38  1  0  0  0  0
 13 14  2  0  0  0  0
 13 46  1  0  0  0  0
 14 15  1  0  0  0  0
 14 39  1  0  0  0  0
 15 19  2  0  0  0  0
 15 40  1  0  0  0  0
 16 25  1  0  0  0  0
 16 26  2  0  0  0  0
 17 23  1  0  0  0  0
 17 41  1  0  0  0  0
 18 22  1  0  0  0  0
 19 22  1  0  0  0  0
 20 25  1  0  0  0  0
 20 42  1  0  0  0  0
 20 43  1  0  0  0  0
 20 44  1  0  0  0  0
 22 47  1  0  0  0  0
 22 48  1  0  0  0  0
 27 45  1  0  0  0  0
M  END
$$$$
