p38a_2n
 OpenBabel02232411163D
Structure written by MMmdl.
 53 56  0  0  0  0  0  0  0  0999 V2000
   38.2810   36.5240   17.1970 C   0  0  0  0  0  0  0  0  0  0  0  0
   34.4090   35.1440   21.2280 C   0  0  0  0  0  0  0  0  0  0  0  0
   37.4960   36.0750   18.2560 C   0  0  0  0  0  0  0  0  0  0  0  0
   33.7360   39.2820   23.6510 C   0  0  0  0  0  0  0  0  0  0  0  0
   34.5560   38.0190   21.3370 C   0  0  0  0  0  0  0  0  0  0  0  0
   35.0280   37.3330   20.1650 C   0  0  0  0  0  0  0  0  0  0  0  0
   37.6320   36.6800   15.9640 C   0  0  0  0  0  0  0  0  0  0  0  0
   36.2820   36.3830   15.7610 C   0  0  0  0  0  0  0  0  0  0  0  0
   35.5190   35.9200   16.8380 C   0  0  0  0  0  0  0  0  0  0  0  0
   34.0500   37.2830   22.4480 C   0  0  0  0  0  0  0  0  0  0  0  0
   34.5880   39.4340   21.4660 C   0  0  0  0  0  0  0  0  0  0  0  0
   34.9790   35.9820   20.1380 C   0  0  0  0  0  0  0  0  0  0  0  0
   36.1330   35.7560   18.0830 C   0  0  0  0  0  0  0  0  0  0  0  0
   38.0280   35.9420   19.4630 F   0  0  0  0  0  0  0  0  0  0  0  0
   35.4180   35.1390   19.1190 O   0  0  0  0  0  0  0  0  0  0  0  0
   34.2110   40.0740   22.5800 N   0  0  0  0  0  0  0  0  0  0  0  0
   34.2990   33.9380   21.2020 O   0  0  0  0  0  0  0  0  0  0  0  0
   33.9440   35.8830   22.3750 N   0  0  0  0  0  0  0  0  0  0  0  0
   33.6480   37.9080   23.6050 N   0  0  0  0  0  0  0  0  0  0  0  0
   33.3080   39.9840   24.7560 N   0  0  0  0  0  0  0  0  0  0  0  0
   39.3360   36.7810   17.3280 H   0  0  0  0  0  0  0  0  0  0  0  0
   35.4190   37.9330   19.3410 H   0  0  0  0  0  0  0  0  0  0  0  0
   35.8120   36.5220   14.7840 H   0  0  0  0  0  0  0  0  0  0  0  0
   34.4540   35.7070   16.7000 H   0  0  0  0  0  0  0  0  0  0  0  0
   34.9330   40.0510   20.6210 H   0  0  0  0  0  0  0  0  0  0  0  0
   33.5310   40.9980   24.8060 H   0  0  0  0  0  0  0  0  0  0  0  0
   38.3310   37.1740   14.9450 F   0  0  0  0  0  0  0  0  0  0  0  0
   33.4970   38.1380   28.1340 C   0  0  0  0  0  0  0  0  0  0  0  0
   34.0030   38.6430   26.7760 C   0  0  0  0  0  0  0  0  0  0  0  0
   32.8760   39.4240   26.0700 C   0  0  0  0  0  0  0  0  0  0  0  0
   31.6100   38.5550   25.9540 C   0  0  0  0  0  0  0  0  0  0  0  0
   31.2090   38.0470   27.3450 C   0  0  0  0  0  0  0  0  0  0  0  0
   32.2930   37.3500   28.0010 O   0  0  0  0  0  0  0  0  0  0  0  0
   33.2960   38.9900   28.8240 H   0  0  0  0  0  0  0  0  0  0  0  0
   34.2080   37.4060   28.5810 H   0  0  0  0  0  0  0  0  0  0  0  0
   34.3170   37.7760   26.1470 H   0  0  0  0  0  0  0  0  0  0  0  0
   34.8860   39.3070   26.9340 H   0  0  0  0  0  0  0  0  0  0  0  0
   32.6290   40.3400   26.6870 H   0  0  0  0  0  0  0  0  0  0  0  0
   30.7760   39.1540   25.5180 H   0  0  0  0  0  0  0  0  0  0  0  0
   31.8070   37.6830   25.2840 H   0  0  0  0  0  0  0  0  0  0  0  0
   30.8760   38.8820   27.9990 H   0  0  0  0  0  0  0  0  0  0  0  0
   30.4340   37.2500   27.2740 H   0  0  0  0  0  0  0  0  0  0  0  0
   33.4010   35.1220   23.5490 C   0  0  0  0  0  0  0  0  0  0  0  0
   32.6100   35.7550   24.0390 H   0  0  0  0  0  0  0  0  0  0  0  0
   32.9220   34.1840   23.1590 H   0  0  0  0  0  0  0  0  0  0  0  0
   34.5090   34.7780   24.5580 C   0  0  0  0  0  0  0  0  0  0  0  0
   35.0100   33.8250   24.2620 H   0  0  0  0  0  0  0  0  0  0  0  0
   35.2770   35.5920   24.5760 H   0  0  0  0  0  0  0  0  0  0  0  0
   33.9630   34.6430   25.9870 C   0  0  0  0  0  0  0  0  0  0  0  0
   34.7950   34.4490   26.7050 H   0  0  0  0  0  0  0  0  0  0  0  0
   33.3800   35.5470   26.2850 H   0  0  0  0  0  0  0  0  0  0  0  0
   33.1330   33.4770   26.1430 O   0  0  0  0  0  0  0  0  0  0  0  0
   32.2890   33.6080   25.6460 H   0  0  0  0  0  0  0  0  0  0  0  0
  1  3  2  0  0  0  0
  1  7  1  0  0  0  0
  1 21  1  0  0  0  0
  2 12  1  0  0  0  0
  2 17  2  0  0  0  0
  2 18  1  0  0  0  0
  3 13  1  0  0  0  0
  3 14  1  0  0  0  0
  4 16  2  0  0  0  0
  4 19  1  0  0  0  0
  4 20  1  0  0  0  0
  5  6  1  0  0  0  0
  5 10  1  0  0  0  0
  5 11  2  0  0  0  0
  6 12  2  0  0  0  0
  6 22  1  0  0  0  0
  7  8  2  0  0  0  0
  7 27  1  0  0  0  0
  8  9  1  0  0  0  0
  8 23  1  0  0  0  0
  9 13  2  0  0  0  0
  9 24  1  0  0  0  0
 10 18  1  0  0  0  0
 10 19  2  0  0  0  0
 11 16  1  0  0  0  0
 11 25  1  0  0  0  0
 12 15  1  0  0  0  0
 13 15  1  0  0  0  0
 18 43  1  0  0  0  0
 20 26  1  0  0  0  0
 20 30  1  0  0  0  0
 28 29  1  0  0  0  0
 28 33  1  0  0  0  0
 28 34  1  0  0  0  0
 28 35  1  0  0  0  0
 29 30  1  0  0  0  0
 29 36  1  0  0  0  0
 29 37  1  0  0  0  0
 30 31  1  0  0  0  0
 30 38  1  0  0  0  0
 31 32  1  0  0  0  0
 31 39  1  0  0  0  0
 31 40  1  0  0  0  0
 32 33  1  0  0  0  0
 32 41  1  0  0  0  0
 32 42  1  0  0  0  0
 43 44  1  0  0  0  0
 43 45  1  0  0  0  0
 43 46  1  0  0  0  0
 46 47  1  0  0  0  0
 46 48  1  0  0  0  0
 46 49  1  0  0  0  0
 49 50  1  0  0  0  0
 49 51  1  0  0  0  0
 49 52  1  0  0  0  0
 52 53  1  0  0  0  0
M  END
$$$$
