p38a_3fmh
 OpenBabel02232411163D
Structure written by MMmdl.
 46 49  0  0  1  0  0  0  0  0999 V2000
   38.2780   37.2290   14.7840 F   0  0  0  0  0  0  0  0  0  0  0  0
   37.6900   36.6640   15.8360 C   0  0  0  0  0  0  0  0  0  0  0  0
   38.3690   36.6540   17.0580 C   0  0  0  0  0  0  0  0  0  0  0  0
   37.7190   36.1540   18.1910 C   0  0  0  0  0  0  0  0  0  0  0  0
   36.4020   36.1420   15.6650 C   0  0  0  0  0  0  0  0  0  0  0  0
   35.7910   35.6130   16.7970 C   0  0  0  0  0  0  0  0  0  0  0  0
   34.5870   35.0620   16.7190 F   0  0  0  0  0  0  0  0  0  0  0  0
   36.4300   35.6320   18.0530 C   0  0  0  0  0  0  0  0  0  0  0  0
   35.7550   34.9700   19.0870 O   0  0  0  0  0  0  0  0  0  0  0  0
   35.2730   35.7750   20.1160 C   0  0  0  0  0  0  0  0  0  0  0  0
   34.6040   34.8850   21.1050 C   0  0  0  0  0  0  0  0  0  0  0  0
   34.3980   33.7010   20.9540 O   0  0  0  0  0  0  0  0  0  0  0  0
   34.1970   35.5450   22.3150 N   0  0  0  0  0  0  0  0  0  0  0  0
   33.6240   34.7390   23.4290 C   0  0  0  0  0  0  0  0  0  0  0  0
   34.3000   36.9370   22.4710 C   0  0  0  0  0  0  0  0  0  0  0  0
   33.8620   37.4900   23.6490 N   0  0  0  0  0  0  0  0  0  0  0  0
   35.3570   37.1190   20.2360 C   0  0  0  0  0  0  0  0  0  0  0  0
   34.8380   37.7420   21.4240 C   0  0  0  0  0  0  0  0  0  0  0  0
   34.8480   39.1480   21.6360 C   0  0  0  0  0  0  0  0  0  0  0  0
   34.4210   39.7240   22.7700 N   0  0  0  0  0  0  0  0  0  0  0  0
   33.9410   38.8630   23.7760 C   0  0  0  0  0  0  0  0  0  0  0  0
   33.5220   39.4290   24.9580 N   0  0  0  0  0  0  0  0  0  0  0  0
   32.8450   38.6380   26.0220 C   0  0  2  0  0  0  0  0  0  0  0  0
   31.8080   39.5240   26.7130 C   0  0  0  0  0  0  0  0  0  0  0  0
   33.8690   38.0080   27.0140 C   0  0  0  0  0  0  0  0  0  0  0  0
   34.6210   38.9910   27.8220 N   0  0  0  0  0  0  0  0  0  0  0  0
   34.2200   39.4010   29.0590 N   0  0  0  0  0  0  0  0  0  0  0  0
   35.1770   40.2920   29.4450 C   0  0  0  0  0  0  0  0  0  0  0  0
   36.1480   40.4010   28.4150 N   0  0  0  0  0  0  0  0  0  0  0  0
   35.7880   39.6090   27.4520 N   0  0  0  0  0  0  0  0  0  0  0  0
   39.3810   37.0580   17.1440 H   0  0  0  0  0  0  0  0  0  0  0  0
   38.2140   36.1990   19.1640 H   0  0  0  0  0  0  0  0  0  0  0  0
   35.8950   36.1690   14.6980 H   0  0  0  0  0  0  0  0  0  0  0  0
   34.1820   34.9500   24.3830 H   0  0  0  0  0  0  0  0  0  0  0  0
   32.5460   35.0130   23.5880 H   0  0  0  0  0  0  0  0  0  0  0  0
   33.6980   33.6450   23.1980 H   0  0  0  0  0  0  0  0  0  0  0  0
   35.8120   37.7590   19.4760 H   0  0  0  0  0  0  0  0  0  0  0  0
   35.2120   39.8170   20.8380 H   0  0  0  0  0  0  0  0  0  0  0  0
   33.5630   40.4580   25.0900 H   0  0  0  0  0  0  0  0  0  0  0  0
   32.3070   37.7530   25.5540 H   0  0  0  0  0  0  0  0  0  0  0  0
   31.3260   38.9560   27.5450 H   0  0  0  0  0  0  0  0  0  0  0  0
   32.2600   40.4500   27.1300 H   0  0  0  0  0  0  0  0  0  0  0  0
   31.0200   39.8080   25.9780 H   0  0  0  0  0  0  0  0  0  0  0  0
   33.2920   37.3250   27.7080 H   0  0  0  0  0  0  0  0  0  0  0  0
   34.6020   37.3750   26.4350 H   0  0  0  0  0  0  0  0  0  0  0  0
   35.2080   40.8390   30.3870 H   0  0  0  0  0  0  0  0  0  0  0  0
  1  2  1  0  0  0  0
  2  3  2  0  0  0  0
  2  5  1  0  0  0  0
  3  4  1  0  0  0  0
  3 31  1  0  0  0  0
  4  8  2  0  0  0  0
  4 32  1  0  0  0  0
  5  6  2  0  0  0  0
  5 33  1  0  0  0  0
  6  7  1  0  0  0  0
  6  8  1  0  0  0  0
  8  9  1  0  0  0  0
  9 10  1  0  0  0  0
 10 11  1  0  0  0  0
 10 17  2  0  0  0  0
 11 12  2  0  0  0  0
 11 13  1  0  0  0  0
 13 14  1  0  0  0  0
 13 15  1  0  0  0  0
 14 34  1  0  0  0  0
 14 35  1  0  0  0  0
 14 36  1  0  0  0  0
 15 16  2  0  0  0  0
 15 18  1  0  0  0  0
 16 21  1  0  0  0  0
 17 18  1  0  0  0  0
 17 37  1  0  0  0  0
 18 19  2  0  0  0  0
 19 20  1  0  0  0  0
 19 38  1  0  0  0  0
 20 21  2  0  0  0  0
 21 22  1  0  0  0  0
 22 23  1  0  0  0  0
 22 39  1  0  0  0  0
 23 24  1  0  0  0  0
 23 25  1  0  0  0  0
 23 40  1  6  0  0  0
 24 41  1  0  0  0  0
 24 42  1  0  0  0  0
 24 43  1  0  0  0  0
 25 26  1  0  0  0  0
 25 44  1  0  0  0  0
 25 45  1  0  0  0  0
 26 27  1  0  0  0  0
 26 30  1  0  0  0  0
 27 28  2  0  0  0  0
 28 29  1  0  0  0  0
 28 46  1  0  0  0  0
 29 30  2  0  0  0  0
M  END
$$$$
