CAT-13b
 OpenBabel02232411143D
Structure written by MMmdl.
 42 44  0  0  1  0  0  0  0  0999 V2000
   14.5630   -5.1550   -0.1700 C   0  0  0  0  0  0  0  0  0  0  0  0
   15.2760   -4.2050   -1.1330 C   0  0  0  0  0  0  0  0  0  0  0  0
   14.9400   -2.7200   -0.8920 C   0  0  2  0  0  0  0  0  0  0  0  0
   15.4980   -1.7130   -1.8790 C   0  0  0  0  0  0  0  0  0  0  0  0
   16.2550   -2.1020   -2.9890 C   0  0  0  0  0  0  0  0  0  0  0  0
   16.6850   -1.1340   -3.9050 C   0  0  0  0  0  0  0  0  0  0  0  0
   16.3780    0.2140   -3.7180 C   0  0  0  0  0  0  0  0  0  0  0  0
   15.6530    0.6210   -2.5840 C   0  0  0  0  0  0  0  0  0  0  0  0
   15.3630    2.0510   -2.3350 C   0  0  0  0  0  0  0  0  0  0  0  0
   15.5440    2.5840   -1.0480 C   0  0  0  0  0  0  0  0  0  0  0  0
   15.2130    3.9140   -0.7750 C   0  0  0  0  0  0  0  0  0  0  0  0
   14.7180    4.7380   -1.7890 C   0  0  0  0  0  0  0  0  0  0  0  0
   14.5930    4.2100   -3.0790 C   0  0  0  0  0  0  0  0  0  0  0  0
   14.0430    5.2370   -4.3420 Cl  0  0  0  0  0  0  0  0  0  0  0  0
   14.8960    2.8790   -3.3690 C   0  0  0  0  0  0  0  0  0  0  0  0
   15.2080   -0.3520   -1.6780 C   0  0  0  0  0  0  0  0  0  0  0  0
   15.3530   -2.3260    0.5090 N   0  3  0  0  0  0  0  0  0  0  0  0
   14.2330   -2.3420    1.3530 C   0  0  0  0  0  0  0  0  0  0  0  0
   14.3320   -2.4020    2.7100 N   0  0  0  0  0  0  0  0  0  0  0  0
   13.0660   -2.3620    0.5960 N   0  0  0  0  0  0  0  0  0  0  0  0
   11.7110   -2.2550    1.1730 C   0  0  0  0  0  0  0  0  0  0  0  0
   13.3860   -2.5600   -0.8360 C   0  0  0  0  0  0  0  0  0  0  0  0
   12.5440   -2.5660   -1.6740 O   0  0  0  0  0  0  0  0  0  0  0  0
   13.4720   -5.2080   -0.3850 H   0  0  0  0  0  0  0  0  0  0  0  0
   14.9820   -6.1830   -0.2900 H   0  0  0  0  0  0  0  0  0  0  0  0
   14.7130   -4.8560    0.8920 H   0  0  0  0  0  0  0  0  0  0  0  0
   14.9820   -4.4720   -2.1810 H   0  0  0  0  0  0  0  0  0  0  0  0
   16.3850   -4.3350   -1.0210 H   0  0  0  0  0  0  0  0  0  0  0  0
   16.5200   -3.1470   -3.1510 H   0  0  0  0  0  0  0  0  0  0  0  0
   17.2750   -1.4370   -4.7750 H   0  0  0  0  0  0  0  0  0  0  0  0
   16.7110    0.9490   -4.4570 H   0  0  0  0  0  0  0  0  0  0  0  0
   15.9360    1.9510   -0.2500 H   0  0  0  0  0  0  0  0  0  0  0  0
   15.3350    4.3000    0.2410 H   0  0  0  0  0  0  0  0  0  0  0  0
   14.4180    5.7650   -1.5700 H   0  0  0  0  0  0  0  0  0  0  0  0
   14.7640    2.4820   -4.3810 H   0  0  0  0  0  0  0  0  0  0  0  0
   14.6360   -0.0530   -0.7990 H   0  0  0  0  0  0  0  0  0  0  0  0
   16.2630   -2.6980    0.8940 H   0  0  0  0  0  0  0  0  0  0  0  0
   13.5880   -2.0230    3.3430 H   0  0  0  0  0  0  0  0  0  0  0  0
   11.7010   -2.6290    2.2320 H   0  0  0  0  0  0  0  0  0  0  0  0
   11.3820   -1.1820    1.1510 H   0  0  0  0  0  0  0  0  0  0  0  0
   11.0020   -2.8840    0.5700 H   0  0  0  0  0  0  0  0  0  0  0  0
   15.2940   -2.3510    3.1470 H   0  0  0  0  0  0  0  0  0  0  0  0
  1  2  1  0  0  0  0
  1 24  1  0  0  0  0
  1 25  1  0  0  0  0
  1 26  1  0  0  0  0
  2 27  1  0  0  0  0
  2 28  1  0  0  0  0
  3  2  1  6  0  0  0
  3  4  1  0  0  0  0
  3 17  1  0  0  0  0
  3 22  1  0  0  0  0
  4  5  2  0  0  0  0
  4 16  1  0  0  0  0
  5  6  1  0  0  0  0
  5 29  1  0  0  0  0
  6  7  2  0  0  0  0
  6 30  1  0  0  0  0
  7  8  1  0  0  0  0
  7 31  1  0  0  0  0
  8  9  1  0  0  0  0
  8 16  2  0  0  0  0
  9 10  2  0  0  0  0
  9 15  1  0  0  0  0
 10 11  1  0  0  0  0
 10 32  1  0  0  0  0
 11 12  2  0  0  0  0
 11 33  1  0  0  0  0
 12 13  1  0  0  0  0
 12 34  1  0  0  0  0
 13 14  1  0  0  0  0
 13 15  2  0  0  0  0
 15 35  1  0  0  0  0
 16 36  1  0  0  0  0
 17 18  2  0  0  0  0
 17 37  1  0  0  0  0
 18 19  1  0  0  0  0
 18 20  1  0  0  0  0
 19 38  1  0  0  0  0
 19 42  1  0  0  0  0
 20 21  1  0  0  0  0
 20 22  1  0  0  0  0
 21 39  1  0  0  0  0
 21 40  1  0  0  0  0
 21 41  1  0  0  0  0
 22 23  2  0  0  0  0
M  CHG  1  17   1
M  END
$$$$
