51
 OpenBabel02232411163D
Structure written by MMmdl.
 44 47  0  0  0  0  0  0  0  0999 V2000
    3.9370  -49.9550    5.7310 O   0  0  0  0  0  0  0  0  0  0  0  0
    3.1670  -49.2340    6.3930 C   0  0  0  0  0  0  0  0  0  0  0  0
    3.4720  -48.2600    7.0920 O   0  5  0  0  0  0  0  0  0  0  0  0
    1.6830  -49.6500    6.3440 C   0  0  0  0  0  0  0  0  0  0  0  0
   -0.0400  -51.1490    6.5000 C   0  0  0  0  0  0  0  0  0  0  0  0
   -0.8510  -52.2800    6.7160 C   0  0  0  0  0  0  0  0  0  0  0  0
   -2.2230  -52.1200    6.6120 C   0  0  0  0  0  0  0  0  0  0  0  0
   -2.7970  -50.8690    6.2810 C   0  0  0  0  0  0  0  0  0  0  0  0
   -1.9840  -49.7680    6.0710 C   0  0  0  0  0  0  0  0  0  0  0  0
   -0.5880  -49.8510    6.1790 C   0  0  0  0  0  0  0  0  0  0  0  0
    0.5220  -48.9260    6.0960 C   0  0  0  0  0  0  0  0  0  0  0  0
    0.3750  -47.4550    5.9030 C   0  0  0  0  0  0  0  0  0  0  0  0
   -0.1260  -46.8400    7.2260 C   0  0  0  0  0  0  0  0  0  0  0  0
   -0.8480  -45.5060    7.1000 C   0  0  0  0  0  0  0  0  0  0  0  0
   -2.2190  -45.6250    6.5880 O   0  0  0  0  0  0  0  0  0  0  0  0
   -3.2430  -45.7900    7.4850 C   0  0  0  0  0  0  0  0  0  0  0  0
   -5.5030  -46.0170    9.1430 C   0  0  0  0  0  0  0  0  0  0  0  0
   -4.3230  -46.6310    9.4800 C   0  0  0  0  0  0  0  0  0  0  0  0
   -3.1740  -46.5160    8.6560 C   0  0  0  0  0  0  0  0  0  0  0  0
   -0.4190  -53.2490    6.9680 H   0  0  0  0  0  0  0  0  0  0  0  0
   -2.8890  -52.9660    6.7960 H   0  0  0  0  0  0  0  0  0  0  0  0
   -3.8830  -50.7910    6.2030 H   0  0  0  0  0  0  0  0  0  0  0  0
   -2.7250  -48.2550    5.6850 Cl  0  0  0  0  0  0  0  0  0  0  0  0
   -0.3620  -47.2450    5.0880 H   0  0  0  0  0  0  0  0  0  0  0  0
    1.3470  -46.9870    5.6160 H   0  0  0  0  0  0  0  0  0  0  0  0
    0.7500  -46.6870    7.9010 H   0  0  0  0  0  0  0  0  0  0  0  0
   -0.8190  -47.5710    7.7080 H   0  0  0  0  0  0  0  0  0  0  0  0
   -0.4180  -44.8650    6.2990 H   0  0  0  0  0  0  0  0  0  0  0  0
   -0.9020  -44.9740    8.0750 H   0  0  0  0  0  0  0  0  0  0  0  0
   -2.2790  -47.0380    8.9640 H   0  0  0  0  0  0  0  0  0  0  0  0
   -5.6060  -45.2840    7.9200 C   0  0  0  0  0  0  0  0  0  0  0  0
   -4.4730  -45.1510    7.0740 C   0  0  0  0  0  0  0  0  0  0  0  0
   -4.5910  -44.4310    5.8480 C   0  0  0  0  0  0  0  0  0  0  0  0
   -5.7970  -43.8870    5.4730 C   0  0  0  0  0  0  0  0  0  0  0  0
   -6.9390  -44.0410    6.3080 C   0  0  0  0  0  0  0  0  0  0  0  0
   -6.8470  -44.7070    7.5050 C   0  0  0  0  0  0  0  0  0  0  0  0
   -3.7160  -44.3430    5.1980 H   0  0  0  0  0  0  0  0  0  0  0  0
   -5.8980  -43.3410    4.5380 H   0  0  0  0  0  0  0  0  0  0  0  0
   -7.8940  -43.6280    5.9860 H   0  0  0  0  0  0  0  0  0  0  0  0
   -7.7210  -44.8280    8.1450 H   0  0  0  0  0  0  0  0  0  0  0  0
   -4.2500  -47.2300   10.3910 H   0  0  0  0  0  0  0  0  0  0  0  0
   -6.3790  -46.0930    9.7860 H   0  0  0  0  0  0  0  0  0  0  0  0
    1.3480  -50.9990    6.5810 N   0  0  0  0  0  0  0  0  0  0  0  0
    1.9810  -51.7690    6.7770 H   0  0  0  0  0  0  0  0  0  0  0  0
  1  2  2  0  0  0  0
  2  3  1  0  0  0  0
  2  4  1  0  0  0  0
  4 11  2  0  0  0  0
  4 43  1  0  0  0  0
  5  6  2  0  0  0  0
  5 10  1  0  0  0  0
  5 43  1  0  0  0  0
  6  7  1  0  0  0  0
  6 20  1  0  0  0  0
  7  8  2  0  0  0  0
  7 21  1  0  0  0  0
  8  9  1  0  0  0  0
  8 22  1  0  0  0  0
  9 10  2  0  0  0  0
  9 23  1  0  0  0  0
 10 11  1  0  0  0  0
 11 12  1  0  0  0  0
 12 24  1  0  0  0  0
 12 25  1  0  0  0  0
 12 13  1  0  0  0  0
 13 14  1  0  0  0  0
 13 26  1  0  0  0  0
 13 27  1  0  0  0  0
 14 15  1  0  0  0  0
 14 28  1  0  0  0  0
 14 29  1  0  0  0  0
 15 16  1  0  0  0  0
 16 19  2  0  0  0  0
 16 32  1  0  0  0  0
 17 18  2  0  0  0  0
 17 31  1  0  0  0  0
 17 42  1  0  0  0  0
 18 19  1  0  0  0  0
 18 41  1  0  0  0  0
 19 30  1  0  0  0  0
 31 32  2  0  0  0  0
 31 36  1  0  0  0  0
 32 33  1  0  0  0  0
 33 34  2  0  0  0  0
 33 37  1  0  0  0  0
 34 35  1  0  0  0  0
 34 38  1  0  0  0  0
 35 36  2  0  0  0  0
 35 39  1  0  0  0  0
 36 40  1  0  0  0  0
 43 44  1  0  0  0  0
M  CHG  1   3  -1
M  END
$$$$
