p38a_3fmk
 OpenBabel02232411163D
Structure written by MMmdl.
 46 49  0  0  1  0  0  0  0  0999 V2000
   37.4240   36.0620   18.1810 C   0  0  0  0  0  0  0  0  0  0  0  0
   38.2410   36.5220   17.1520 C   0  0  0  0  0  0  0  0  0  0  0  0
   34.1370   35.0630   23.6910 C   0  0  0  0  0  0  0  0  0  0  0  0
   36.2770   36.4430   15.6650 C   0  0  0  0  0  0  0  0  0  0  0  0
   34.6410   39.4120   21.4410 C   0  0  0  0  0  0  0  0  0  0  0  0
   33.9420   39.2010   26.2600 C   0  0  1  0  0  0  0  0  0  0  0  0
   32.5840   39.7570   26.8110 C   0  0  0  0  0  0  0  0  0  0  0  0
   34.2950   39.2210   23.7520 C   0  0  0  0  0  0  0  0  0  0  0  0
   34.5900   35.1220   21.2070 C   0  0  0  0  0  0  0  0  0  0  0  0
   34.9780   35.9780   20.0560 C   0  0  0  0  0  0  0  0  0  0  0  0
   34.9820   37.3300   20.0830 C   0  0  0  0  0  0  0  0  0  0  0  0
   36.0590   35.7710   17.9680 C   0  0  0  0  0  0  0  0  0  0  0  0
   35.4800   35.9680   16.7120 C   0  0  0  0  0  0  0  0  0  0  0  0
   34.6870   37.9980   21.3210 C   0  0  0  0  0  0  0  0  0  0  0  0
   34.4520   37.2360   22.5060 C   0  0  0  0  0  0  0  0  0  0  0  0
   34.1900   39.8760   24.9580 N   0  0  0  0  0  0  0  0  0  0  0  0
   37.6250   36.7130   15.9070 C   0  0  0  0  0  0  0  0  0  0  0  0
   38.3550   37.2180   14.9160 F   0  0  0  0  0  0  0  0  0  0  0  0
   37.9240   35.8960   19.3990 F   0  0  0  0  0  0  0  0  0  0  0  0
   35.2930   35.1600   18.9710 O   0  0  0  0  0  0  0  0  0  0  0  0
   34.4280   33.9220   21.1720 O   0  0  0  0  0  0  0  0  0  0  0  0
   34.4000   35.8360   22.4430 N   0  0  0  0  0  0  0  0  0  0  0  0
   34.2680   37.8420   23.7250 N   0  0  0  0  0  0  0  0  0  0  0  0
   34.4480   40.0350   22.6130 N   0  0  0  0  0  0  0  0  0  0  0  0
   35.1010   39.5150   27.2090 C   0  0  0  0  0  0  0  0  0  0  0  0
   31.9290   38.7810   27.7030 N   0  0  0  0  0  0  0  0  0  0  0  0
   31.1280   37.7750   27.2530 N   0  0  0  0  0  0  0  0  0  0  0  0
   30.7930   37.0860   28.3790 C   0  0  0  0  0  0  0  0  0  0  0  0
   31.4110   37.7010   29.5010 N   0  0  0  0  0  0  0  0  0  0  0  0
   32.0910   38.7140   29.0660 N   0  0  0  0  0  0  0  0  0  0  0  0
   39.2960   36.7600   17.3150 H   0  0  0  0  0  0  0  0  0  0  0  0
   34.8870   35.3410   24.4800 H   0  0  0  0  0  0  0  0  0  0  0  0
   33.1080   35.3010   24.0770 H   0  0  0  0  0  0  0  0  0  0  0  0
   34.2080   33.9630   23.4870 H   0  0  0  0  0  0  0  0  0  0  0  0
   35.8320   36.6140   14.6830 H   0  0  0  0  0  0  0  0  0  0  0  0
   34.7580   40.0480   20.5480 H   0  0  0  0  0  0  0  0  0  0  0  0
   33.8630   38.0880   26.1100 H   0  0  0  0  0  0  0  0  0  0  0  0
   32.7760   40.7090   27.3840 H   0  0  0  0  0  0  0  0  0  0  0  0
   31.8920   39.9900   25.9520 H   0  0  0  0  0  0  0  0  0  0  0  0
   35.2190   37.9420   19.2100 H   0  0  0  0  0  0  0  0  0  0  0  0
   34.4160   35.7710   16.5430 H   0  0  0  0  0  0  0  0  0  0  0  0
   34.1450   40.9130   24.9880 H   0  0  0  0  0  0  0  0  0  0  0  0
   36.0370   39.0410   26.8360 H   0  0  0  0  0  0  0  0  0  0  0  0
   35.2670   40.6160   27.2880 H   0  0  0  0  0  0  0  0  0  0  0  0
   34.8860   39.1210   28.2290 H   0  0  0  0  0  0  0  0  0  0  0  0
   30.1560   36.2030   28.4300 H   0  0  0  0  0  0  0  0  0  0  0  0
  1  2  2  0  0  0  0
  1 12  1  0  0  0  0
  1 19  1  0  0  0  0
  2 17  1  0  0  0  0
  2 31  1  0  0  0  0
  3 22  1  0  0  0  0
  3 32  1  0  0  0  0
  3 33  1  0  0  0  0
  3 34  1  0  0  0  0
  4 13  1  0  0  0  0
  4 17  2  0  0  0  0
  4 35  1  0  0  0  0
  5 14  2  0  0  0  0
  5 24  1  0  0  0  0
  5 36  1  0  0  0  0
  6  7  1  0  0  0  0
  6 16  1  0  0  0  0
  6 25  1  0  0  0  0
  6 37  1  6  0  0  0
  7 26  1  0  0  0  0
  7 38  1  0  0  0  0
  7 39  1  0  0  0  0
  8 16  1  0  0  0  0
  8 23  1  0  0  0  0
  8 24  2  0  0  0  0
  9 10  1  0  0  0  0
  9 21  2  0  0  0  0
  9 22  1  0  0  0  0
 10 11  2  0  0  0  0
 10 20  1  0  0  0  0
 11 14  1  0  0  0  0
 11 40  1  0  0  0  0
 12 13  2  0  0  0  0
 12 20  1  0  0  0  0
 13 41  1  0  0  0  0
 14 15  1  0  0  0  0
 15 22  1  0  0  0  0
 15 23  2  0  0  0  0
 16 42  1  0  0  0  0
 17 18  1  0  0  0  0
 25 43  1  0  0  0  0
 25 44  1  0  0  0  0
 25 45  1  0  0  0  0
 26 27  1  0  0  0  0
 26 30  1  0  0  0  0
 27 28  2  0  0  0  0
 28 29  1  0  0  0  0
 28 46  1  0  0  0  0
 29 30  2  0  0  0  0
M  END
$$$$
