18637-1
 OpenBabel02232411163D
Structure written by MMmdl.
 53 54  0  0  0  0  0  0  0  0999 V2000
   23.1900   10.8450   29.0760 C   0  0  0  0  0  0  0  0  0  0  0  0
   23.4560   11.0760   30.5490 C   0  0  0  0  0  0  0  0  0  0  0  0
   22.1880   11.1740   31.3000 O   0  0  0  0  0  0  0  0  0  0  0  0
   21.5290   10.0410   31.6360 C   0  0  0  0  0  0  0  0  0  0  0  0
   21.9890    8.8480   31.1990 N   0  0  0  0  0  0  0  0  0  0  0  0
   21.2380    7.7200   31.4990 C   0  0  0  0  0  0  0  0  0  0  0  0
   20.0810    7.7720   32.2700 C   0  0  0  0  0  0  0  0  0  0  0  0
   19.6210    9.0260   32.7490 C   0  0  0  0  0  0  0  0  0  0  0  0
   18.4750    9.0810   33.5020 N   0  0  0  0  0  0  0  0  0  0  0  0
   20.3480   10.2150   32.4190 C   0  0  0  0  0  0  0  0  0  0  0  0
   19.9530   11.5190   32.7850 C   0  0  0  0  0  0  0  0  0  0  0  0
   19.6760   12.6160   33.0420 N   0  0  0  0  0  0  0  0  0  0  0  0
   21.7910    6.5650   30.9110 N   0  0  0  0  0  0  0  0  0  0  0  0
   21.1840    5.2910   30.8030 C   0  0  0  0  0  0  0  0  0  0  0  0
   20.1010    5.0430   31.2880 O   0  0  0  0  0  0  0  0  0  0  0  0
   21.9920    4.3130   29.9590 C   0  0  0  0  0  0  0  0  0  0  0  0
   23.3250    3.9880   30.5610 C   0  0  0  0  0  0  0  0  0  0  0  0
   24.4490    4.8160   30.3480 C   0  0  0  0  0  0  0  0  0  0  0  0
   24.1840    5.8970   29.5230 O   0  0  0  0  0  0  0  0  0  0  0  0
   25.1690    6.9630   29.4340 C   0  0  0  0  0  0  0  0  0  0  0  0
   25.7020    4.5410   30.9130 C   0  0  0  0  0  0  0  0  0  0  0  0
   25.8630    3.3990   31.7020 C   0  0  0  0  0  0  0  0  0  0  0  0
   24.7300    2.5530   31.9170 C   0  0  0  0  0  0  0  0  0  0  0  0
   23.4920    2.8410   31.3510 C   0  0  0  0  0  0  0  0  0  0  0  0
   24.9960    1.4880   32.7640 O   0  0  0  0  0  0  0  0  0  0  0  0
   24.1020    0.3470   32.7010 C   0  0  0  0  0  0  0  0  0  0  0  0
   27.0970    3.0620   32.3280 N   0  0  0  0  0  0  0  0  0  0  0  0
   28.3850    3.3880   31.8340 C   0  0  0  0  0  0  0  0  0  0  0  0
   28.5220    4.0160   30.7990 O   0  0  0  0  0  0  0  0  0  0  0  0
   29.5070    2.8940   32.6950 C   0  0  0  0  0  0  0  0  0  0  0  0
   22.7580    9.8330   28.8960 H   0  0  0  0  0  0  0  0  0  0  0  0
   22.4940   11.6090   28.6650 H   0  0  0  0  0  0  0  0  0  0  0  0
   24.1540   10.9170   28.5130 H   0  0  0  0  0  0  0  0  0  0  0  0
   23.8610   12.0970   30.7480 H   0  0  0  0  0  0  0  0  0  0  0  0
   24.0920   10.2770   30.9930 H   0  0  0  0  0  0  0  0  0  0  0  0
   19.5110    6.8680   32.4950 H   0  0  0  0  0  0  0  0  0  0  0  0
   18.0880    9.9700   33.8180 H   0  0  0  0  0  0  0  0  0  0  0  0
   17.9720    8.2150   33.7730 H   0  0  0  0  0  0  0  0  0  0  0  0
   22.7140    6.7120   30.4300 H   0  0  0  0  0  0  0  0  0  0  0  0
   21.3940    3.3750   29.8320 H   0  0  0  0  0  0  0  0  0  0  0  0
   22.1480    4.7770   28.9470 H   0  0  0  0  0  0  0  0  0  0  0  0
   25.4200    7.3460   30.4460 H   0  0  0  0  0  0  0  0  0  0  0  0
   26.0600    6.5990   28.8820 H   0  0  0  0  0  0  0  0  0  0  0  0
   24.6080    7.7260   28.8450 H   0  0  0  0  0  0  0  0  0  0  0  0
   26.5490    5.2110   30.7370 H   0  0  0  0  0  0  0  0  0  0  0  0
   22.6440    2.1720   31.5200 H   0  0  0  0  0  0  0  0  0  0  0  0
   24.6520   -0.3980   33.3250 H   0  0  0  0  0  0  0  0  0  0  0  0
   23.1250    0.6100   33.1610 H   0  0  0  0  0  0  0  0  0  0  0  0
   23.9970   -0.0050   31.6530 H   0  0  0  0  0  0  0  0  0  0  0  0
   27.0380    2.3920   33.1150 H   0  0  0  0  0  0  0  0  0  0  0  0
   29.5600    1.7740   32.6930 H   0  0  0  0  0  0  0  0  0  0  0  0
   30.4920    3.2780   32.3260 H   0  0  0  0  0  0  0  0  0  0  0  0
   29.3940    3.2260   33.7590 H   0  0  0  0  0  0  0  0  0  0  0  0
  1  2  1  0  0  0  0
  1 31  1  0  0  0  0
  1 32  1  0  0  0  0
  1 33  1  0  0  0  0
  2  3  1  0  0  0  0
  2 34  1  0  0  0  0
  2 35  1  0  0  0  0
  3  4  1  0  0  0  0
  4 10  2  0  0  0  0
  4  5  1  0  0  0  0
  5  6  2  0  0  0  0
  6  7  1  0  0  0  0
  6 13  1  0  0  0  0
  7  8  2  0  0  0  0
  7 36  1  0  0  0  0
  8  9  1  0  0  0  0
  8 10  1  0  0  0  0
  9 37  1  0  0  0  0
  9 38  1  0  0  0  0
 10 11  1  0  0  0  0
 11 12  3  0  0  0  0
 13 14  1  0  0  0  0
 13 39  1  0  0  0  0
 14 15  2  0  0  0  0
 14 16  1  0  0  0  0
 16 17  1  0  0  0  0
 16 40  1  0  0  0  0
 16 41  1  0  0  0  0
 17 24  2  0  0  0  0
 17 18  1  0  0  0  0
 18 19  1  0  0  0  0
 18 21  2  0  0  0  0
 19 20  1  0  0  0  0
 20 42  1  0  0  0  0
 20 43  1  0  0  0  0
 20 44  1  0  0  0  0
 21 22  1  0  0  0  0
 21 45  1  0  0  0  0
 22 23  2  0  0  0  0
 22 27  1  0  0  0  0
 23 24  1  0  0  0  0
 23 25  1  0  0  0  0
 24 46  1  0  0  0  0
 25 26  1  0  0  0  0
 26 47  1  0  0  0  0
 26 48  1  0  0  0  0
 26 49  1  0  0  0  0
 27 28  1  0  0  0  0
 27 50  1  0  0  0  0
 28 29  2  0  0  0  0
 28 30  1  0  0  0  0
 30 51  1  0  0  0  0
 30 52  1  0  0  0  0
 30 53  1  0  0  0  0
M  END
$$$$
