36
                    3D
 Schrodinger Suite 2022-3.
 44 46  0  0  1  0  0  0  0  0999 V2000
    3.4650  -48.4060    7.2260 O   0  0  0  0  0  0  0  0  0  0  0  0
    3.0760  -49.3550    6.5320 C   0  0  0  0  0  0  0  0  0  0  0  0
    3.7850  -50.1590    5.8980 O   0  5  0  0  0  0  0  0  0  0  0  0
    1.5600  -49.6180    6.4450 C   0  0  0  0  0  0  0  0  0  0  0  0
   -0.3290  -50.9010    6.6020 C   0  0  0  0  0  0  0  0  0  0  0  0
   -1.2720  -51.9200    6.8200 C   0  0  0  0  0  0  0  0  0  0  0  0
   -2.5940  -51.6450    6.5010 C   0  0  0  0  0  0  0  0  0  0  0  0
   -2.9750  -50.3870    5.9770 C   0  0  0  0  0  0  0  0  0  0  0  0
   -2.0490  -49.3750    5.7640 C   0  0  0  0  0  0  0  0  0  0  0  0
   -0.6990  -49.6100    6.0750 C   0  0  0  0  0  0  0  0  0  0  0  0
    0.5110  -48.8200    6.0010 C   0  0  0  0  0  0  0  0  0  0  0  0
    0.5550  -47.4060    5.5390 C   0  0  0  0  0  0  0  0  0  0  0  0
    0.5680  -46.4030    6.7070 C   0  0  0  0  0  0  0  0  0  0  0  0
   -0.7080  -46.4240    7.5410 C   0  0  0  0  0  0  0  0  0  0  0  0
   -1.7120  -45.7740    6.6730 O   0  0  0  0  0  0  0  0  0  0  0  0
   -2.9810  -45.6540    7.1430 C   0  0  0  0  0  0  0  0  0  0  0  0
   -3.8590  -45.0110    6.2410 C   0  0  0  0  0  0  0  0  0  0  0  0
   -5.2030  -44.8470    6.5790 C   0  0  0  0  0  0  0  0  0  0  0  0
   -5.6290  -45.2940    7.8450 C   0  0  0  0  0  0  0  0  0  0  0  0
   -4.7680  -45.9270    8.7400 C   0  0  0  0  0  0  0  0  0  0  0  0
   -3.4330  -46.1220    8.3920 C   0  0  0  0  0  0  0  0  0  0  0  0
   -0.9840  -52.8890    7.2270 H   0  0  0  0  0  0  0  0  0  0  0  0
   -3.3610  -52.4040    6.6560 H   0  0  0  0  0  0  0  0  0  0  0  0
   -4.0270  -50.2220    5.7400 H   0  0  0  0  0  0  0  0  0  0  0  0
   -2.3720  -48.4140    5.3630 H   0  0  0  0  0  0  0  0  0  0  0  0
   -0.3510  -47.1970    4.9120 H   0  0  0  0  0  0  0  0  0  0  0  0
    1.4630  -47.2240    4.9150 H   0  0  0  0  0  0  0  0  0  0  0  0
    0.6940  -45.3730    6.2990 H   0  0  0  0  0  0  0  0  0  0  0  0
    1.4210  -46.6480    7.3870 H   0  0  0  0  0  0  0  0  0  0  0  0
   -0.6260  -45.7930    8.4510 H   0  0  0  0  0  0  0  0  0  0  0  0
   -1.0730  -47.4530    7.7440 H   0  0  0  0  0  0  0  0  0  0  0  0
   -3.4890  -44.6730    5.2740 H   0  0  0  0  0  0  0  0  0  0  0  0
   -2.7830  -46.6400    9.0920 H   0  0  0  0  0  0  0  0  0  0  0  0
    1.0570  -50.8780    6.8230 N   0  0  0  0  0  0  0  0  0  0  0  0
    1.5790  -51.6720    7.1770 H   0  0  0  0  0  0  0  0  0  0  0  0
   -5.1430  -46.2810    9.7050 H   0  0  0  0  0  0  0  0  0  0  0  0
   -7.2820  -45.0960    8.3140 Cl  0  0  0  0  0  0  0  0  0  0  0  0
   -6.1700  -44.2770    5.5790 C   0  0  0  0  0  0  0  0  0  0  0  0
   -5.6990  -44.2710    4.5650 H   0  0  0  0  0  0  0  0  0  0  0  0
   -7.0810  -44.9280    5.5260 H   0  0  0  0  0  0  0  0  0  0  0  0
   -6.5750  -42.8480    5.9410 C   0  0  0  0  0  0  0  0  0  0  0  0
   -7.1360  -42.3950    5.1010 H   0  0  0  0  0  0  0  0  0  0  0  0
   -7.2230  -42.8340    6.8450 H   0  0  0  0  0  0  0  0  0  0  0  0
   -5.6600  -42.2500    6.1380 H   0  0  0  0  0  0  0  0  0  0  0  0
  1  2  2  0  0  0  0
  2  3  1  0  0  0  0
  2  4  1  0  0  0  0
  4 11  2  0  0  0  0
  4 34  1  0  0  0  0
  5  6  1  0  0  0  0
  5 10  2  0  0  0  0
  5 34  1  0  0  0  0
  6  7  2  0  0  0  0
  6 22  1  0  0  0  0
  7  8  1  0  0  0  0
  7 23  1  0  0  0  0
  8  9  2  0  0  0  0
  8 24  1  0  0  0  0
  9 10  1  0  0  0  0
  9 25  1  0  0  0  0
 10 11  1  0  0  0  0
 11 12  1  0  0  0  0
 12 26  1  0  0  0  0
 12 27  1  0  0  0  0
 12 13  1  0  0  0  0
 13 14  1  0  0  0  0
 13 28  1  0  0  0  0
 13 29  1  0  0  0  0
 14 15  1  0  0  0  0
 14 30  1  0  0  0  0
 14 31  1  0  0  0  0
 15 16  1  0  0  0  0
 16 17  1  0  0  0  0
 16 21  2  0  0  0  0
 17 18  2  0  0  0  0
 17 32  1  0  0  0  0
 18 19  1  0  0  0  0
 18 38  1  0  0  0  0
 19 20  2  0  0  0  0
 19 37  1  0  0  0  0
 20 21  1  0  0  0  0
 20 36  1  0  0  0  0
 21 33  1  0  0  0  0
 34 35  1  0  0  0  0
 38 39  1  0  0  0  0
 38 40  1  0  0  0  0
 38 41  1  0  0  0  0
 41 42  1  0  0  0  0
 41 43  1  0  0  0  0
 41 44  1  0  0  0  0
M  CHG  1   3  -1
M  END
$$$$
