p38a_3flw
 OpenBabel02232411163D
Structure written by MMmdl.
 49 51  0  0  0  0  0  0  0  0999 V2000
   36.3020   35.9930   15.9140 C   0  0  0  0  0  0  0  0  0  0  0  0
   37.6040   36.4810   16.0870 C   0  0  0  0  0  0  0  0  0  0  0  0
   33.8200   40.1080   27.6740 C   0  0  0  0  0  0  0  0  0  0  0  0
   35.3180   40.4000   27.8380 C   0  0  0  0  0  0  0  0  0  0  0  0
   31.9080   39.0800   26.3670 C   0  0  0  0  0  0  0  0  0  0  0  0
   34.2250   35.1020   24.0350 C   0  0  0  0  0  0  0  0  0  0  0  0
   34.4130   35.0730   16.9890 F   0  0  0  0  0  0  0  0  0  0  0  0
   35.6380   35.5780   17.0630 C   0  0  0  0  0  0  0  0  0  0  0  0
   38.2390   36.9600   15.0200 F   0  0  0  0  0  0  0  0  0  0  0  0
   38.2530   36.5230   17.3250 C   0  0  0  0  0  0  0  0  0  0  0  0
   37.5520   36.1290   18.4700 C   0  0  0  0  0  0  0  0  0  0  0  0
   36.2420   35.6610   18.3360 C   0  0  0  0  0  0  0  0  0  0  0  0
   35.4960   35.1120   19.3860 O   0  0  0  0  0  0  0  0  0  0  0  0
   35.1580   35.9760   20.4240 C   0  0  0  0  0  0  0  0  0  0  0  0
   35.2180   37.3270   20.4430 C   0  0  0  0  0  0  0  0  0  0  0  0
   34.8330   38.0170   21.6470 C   0  0  0  0  0  0  0  0  0  0  0  0
   34.7630   39.4320   21.7430 C   0  0  0  0  0  0  0  0  0  0  0  0
   34.4510   40.0770   22.8790 N   0  0  0  0  0  0  0  0  0  0  0  0
   34.6420   35.1500   21.5520 C   0  0  0  0  0  0  0  0  0  0  0  0
   34.3750   33.9720   21.5020 O   0  0  0  0  0  0  0  0  0  0  0  0
   34.4620   35.8770   22.7860 N   0  0  0  0  0  0  0  0  0  0  0  0
   34.5050   37.2770   22.8210 C   0  0  0  0  0  0  0  0  0  0  0  0
   34.1880   37.9060   24.0010 N   0  0  0  0  0  0  0  0  0  0  0  0
   34.1910   39.2860   24.0140 C   0  0  0  0  0  0  0  0  0  0  0  0
   33.9630   39.9440   25.2040 N   0  0  0  0  0  0  0  0  0  0  0  0
   33.4470   39.2640   26.4320 C   0  0  0  0  0  0  0  0  0  0  0  0
   31.4770   37.6060   26.4230 C   0  0  0  0  0  0  0  0  0  0  0  0
   31.5520   36.9730   25.1400 O   0  0  0  0  0  0  0  0  0  0  0  0
   35.6130   41.7710   27.5030 O   0  0  0  0  0  0  0  0  0  0  0  0
   35.8280   35.9650   14.9290 H   0  0  0  0  0  0  0  0  0  0  0  0
   33.4630   39.5380   28.5710 H   0  0  0  0  0  0  0  0  0  0  0  0
   33.2680   41.0810   27.6520 H   0  0  0  0  0  0  0  0  0  0  0  0
   35.6260   40.3250   28.9070 H   0  0  0  0  0  0  0  0  0  0  0  0
   35.9380   39.7430   27.1880 H   0  0  0  0  0  0  0  0  0  0  0  0
   31.4380   39.6000   27.2390 H   0  0  0  0  0  0  0  0  0  0  0  0
   31.4950   39.5510   25.4440 H   0  0  0  0  0  0  0  0  0  0  0  0
   34.6850   35.6300   24.9150 H   0  0  0  0  0  0  0  0  0  0  0  0
   33.1240   34.9830   24.2190 H   0  0  0  0  0  0  0  0  0  0  0  0
   34.6960   34.0880   23.9480 H   0  0  0  0  0  0  0  0  0  0  0  0
   39.2810   36.8860   17.4050 H   0  0  0  0  0  0  0  0  0  0  0  0
   38.0260   36.2110   19.4500 H   0  0  0  0  0  0  0  0  0  0  0  0
   35.5580   37.9230   19.5930 H   0  0  0  0  0  0  0  0  0  0  0  0
   34.9580   40.0520   20.8520 H   0  0  0  0  0  0  0  0  0  0  0  0
   33.8540   40.9760   25.1960 H   0  0  0  0  0  0  0  0  0  0  0  0
   33.9550   38.2640   26.5200 H   0  0  0  0  0  0  0  0  0  0  0  0
   32.1100   37.0350   27.1440 H   0  0  0  0  0  0  0  0  0  0  0  0
   30.4000   37.5240   26.6940 H   0  0  0  0  0  0  0  0  0  0  0  0
   32.4640   37.1150   24.7820 H   0  0  0  0  0  0  0  0  0  0  0  0
   35.1240   41.9770   26.6560 H   0  0  0  0  0  0  0  0  0  0  0  0
  1  2  2  0  0  0  0
  1  8  1  0  0  0  0
  1 30  1  0  0  0  0
  2  9  1  0  0  0  0
  2 10  1  0  0  0  0
  3  4  1  0  0  0  0
  3 26  1  0  0  0  0
  3 31  1  0  0  0  0
  3 32  1  0  0  0  0
  4 29  1  0  0  0  0
  4 33  1  0  0  0  0
  4 34  1  0  0  0  0
  5 26  1  0  0  0  0
  5 27  1  0  0  0  0
  5 35  1  0  0  0  0
  5 36  1  0  0  0  0
  6 21  1  0  0  0  0
  6 37  1  0  0  0  0
  6 38  1  0  0  0  0
  6 39  1  0  0  0  0
  7  8  1  0  0  0  0
  8 12  2  0  0  0  0
 10 11  2  0  0  0  0
 10 40  1  0  0  0  0
 11 12  1  0  0  0  0
 11 41  1  0  0  0  0
 12 13  1  0  0  0  0
 13 14  1  0  0  0  0
 14 15  2  0  0  0  0
 14 19  1  0  0  0  0
 15 16  1  0  0  0  0
 15 42  1  0  0  0  0
 16 17  2  0  0  0  0
 16 22  1  0  0  0  0
 17 18  1  0  0  0  0
 17 43  1  0  0  0  0
 18 24  2  0  0  0  0
 19 20  2  0  0  0  0
 19 21  1  0  0  0  0
 21 22  1  0  0  0  0
 22 23  2  0  0  0  0
 23 24  1  0  0  0  0
 24 25  1  0  0  0  0
 25 26  1  0  0  0  0
 25 44  1  0  0  0  0
 26 45  1  0  0  0  0
 27 28  1  0  0  0  0
 27 46  1  0  0  0  0
 27 47  1  0  0  0  0
 28 48  1  0  0  0  0
 29 49  1  0  0  0  0
M  END
$$$$
