p38a_3fly
 OpenBabel02232411163D
Structure written by MMmdl.
 41 43  0  0  0  0  0  0  0  0999 V2000
   34.8340   39.2090   21.5970 C   0  0  0  0  0  0  0  0  0  0  0  0
   34.1750   37.0310   22.4350 C   0  0  0  0  0  0  0  0  0  0  0  0
   34.3950   39.8080   22.7140 N   0  0  0  0  0  0  0  0  0  0  0  0
   34.7880   37.8020   21.4030 C   0  0  0  0  0  0  0  0  0  0  0  0
   35.3400   37.1500   20.2470 C   0  0  0  0  0  0  0  0  0  0  0  0
   35.2370   35.8050   20.1470 C   0  0  0  0  0  0  0  0  0  0  0  0
   34.5160   34.9460   21.1260 C   0  0  0  0  0  0  0  0  0  0  0  0
   33.8670   38.9770   23.7240 C   0  0  0  0  0  0  0  0  0  0  0  0
   32.7020   38.8760   25.9560 C   0  0  0  0  0  0  0  0  0  0  0  0
   32.9170   39.5940   27.2950 C   0  0  0  0  0  0  0  0  0  0  0  0
   31.2270   38.8990   25.5280 C   0  0  0  0  0  0  0  0  0  0  0  0
   36.4210   35.6210   18.1060 C   0  0  0  0  0  0  0  0  0  0  0  0
   37.7110   36.1430   18.2350 C   0  0  0  0  0  0  0  0  0  0  0  0
   38.3600   36.6330   17.0960 C   0  0  0  0  0  0  0  0  0  0  0  0
   37.6790   36.6330   15.8760 C   0  0  0  0  0  0  0  0  0  0  0  0
   36.3910   36.1080   15.7110 C   0  0  0  0  0  0  0  0  0  0  0  0
   35.7810   35.5920   16.8490 C   0  0  0  0  0  0  0  0  0  0  0  0
   38.2650   37.1910   14.8190 F   0  0  0  0  0  0  0  0  0  0  0  0
   34.5760   35.0420   16.7790 F   0  0  0  0  0  0  0  0  0  0  0  0
   35.7470   34.9760   19.1500 O   0  0  0  0  0  0  0  0  0  0  0  0
   34.3220   33.7560   21.0030 O   0  0  0  0  0  0  0  0  0  0  0  0
   34.0320   35.6410   22.2870 N   0  0  0  0  0  0  0  0  0  0  0  0
   33.3490   34.8680   23.3630 C   0  0  0  0  0  0  0  0  0  0  0  0
   33.7080   37.6110   23.5880 N   0  0  0  0  0  0  0  0  0  0  0  0
   33.5540   39.5640   24.9280 N   0  0  0  0  0  0  0  0  0  0  0  0
   35.2380   39.8580   20.8030 H   0  0  0  0  0  0  0  0  0  0  0  0
   35.8350   37.7690   19.4950 H   0  0  0  0  0  0  0  0  0  0  0  0
   33.0490   37.8090   26.0520 H   0  0  0  0  0  0  0  0  0  0  0  0
   33.9970   39.5890   27.5740 H   0  0  0  0  0  0  0  0  0  0  0  0
   32.5680   40.6490   27.2490 H   0  0  0  0  0  0  0  0  0  0  0  0
   32.3480   39.0660   28.0950 H   0  0  0  0  0  0  0  0  0  0  0  0
   31.0580   38.2080   24.6720 H   0  0  0  0  0  0  0  0  0  0  0  0
   30.5930   38.5620   26.3780 H   0  0  0  0  0  0  0  0  0  0  0  0
   30.9150   39.9240   25.2370 H   0  0  0  0  0  0  0  0  0  0  0  0
   38.2090   36.1950   19.2060 H   0  0  0  0  0  0  0  0  0  0  0  0
   39.3730   37.0360   17.1760 H   0  0  0  0  0  0  0  0  0  0  0  0
   35.8850   36.1250   14.7430 H   0  0  0  0  0  0  0  0  0  0  0  0
   33.3540   33.7740   23.1190 H   0  0  0  0  0  0  0  0  0  0  0  0
   33.8750   35.0260   24.3440 H   0  0  0  0  0  0  0  0  0  0  0  0
   32.2870   35.2180   23.4720 H   0  0  0  0  0  0  0  0  0  0  0  0
   33.5860   40.6010   25.0070 H   0  0  0  0  0  0  0  0  0  0  0  0
  1  3  2  0  0  0  0
  1  4  1  0  0  0  0
  1 26  1  0  0  0  0
  2  4  2  0  0  0  0
  2 22  1  0  0  0  0
  2 24  1  0  0  0  0
  3  8  1  0  0  0  0
  4  5  1  0  0  0  0
  5  6  2  0  0  0  0
  5 27  1  0  0  0  0
  6  7  1  0  0  0  0
  6 20  1  0  0  0  0
  7 21  2  0  0  0  0
  7 22  1  0  0  0  0
  8 24  2  0  0  0  0
  8 25  1  0  0  0  0
  9 10  1  0  0  0  0
  9 11  1  0  0  0  0
  9 25  1  0  0  0  0
  9 28  1  0  0  0  0
 10 29  1  0  0  0  0
 10 30  1  0  0  0  0
 10 31  1  0  0  0  0
 11 32  1  0  0  0  0
 11 33  1  0  0  0  0
 11 34  1  0  0  0  0
 12 13  2  0  0  0  0
 12 17  1  0  0  0  0
 12 20  1  0  0  0  0
 13 14  1  0  0  0  0
 13 35  1  0  0  0  0
 14 15  2  0  0  0  0
 14 36  1  0  0  0  0
 15 16  1  0  0  0  0
 15 18  1  0  0  0  0
 16 17  2  0  0  0  0
 16 37  1  0  0  0  0
 17 19  1  0  0  0  0
 22 23  1  0  0  0  0
 23 38  1  0  0  0  0
 23 39  1  0  0  0  0
 23 40  1  0  0  0  0
 25 41  1  0  0  0  0
M  END
$$$$
