42 flip
                    3D
 Schrodinger Suite 2022-3.
 44 47  0  0  1  0  0  0  0  0999 V2000
    3.3740  -48.2440    7.2000 O   0  0  0  0  0  0  0  0  0  0  0  0
    2.9770  -49.1560    6.4620 C   0  0  0  0  0  0  0  0  0  0  0  0
    3.6770  -49.9150    5.7640 O   0  5  0  0  0  0  0  0  0  0  0  0
    1.4630  -49.4330    6.4000 C   0  0  0  0  0  0  0  0  0  0  0  0
   -0.4030  -50.7500    6.5480 C   0  0  0  0  0  0  0  0  0  0  0  0
   -1.3270  -51.7900    6.7450 C   0  0  0  0  0  0  0  0  0  0  0  0
   -2.6610  -51.5170    6.4770 C   0  0  0  0  0  0  0  0  0  0  0  0
   -3.0740  -50.2430    6.0230 C   0  0  0  0  0  0  0  0  0  0  0  0
   -2.1650  -49.2110    5.8290 C   0  0  0  0  0  0  0  0  0  0  0  0
   -0.8050  -49.4430    6.0900 C   0  0  0  0  0  0  0  0  0  0  0  0
    0.3940  -48.6320    6.0160 C   0  0  0  0  0  0  0  0  0  0  0  0
    0.4050  -47.2080    5.5900 C   0  0  0  0  0  0  0  0  0  0  0  0
    0.2710  -46.2240    6.7690 C   0  0  0  0  0  0  0  0  0  0  0  0
   -1.0780  -46.3230    7.4850 C   0  0  0  0  0  0  0  0  0  0  0  0
   -2.0580  -45.9730    6.4470 O   0  0  0  0  0  0  0  0  0  0  0  0
   -3.2750  -45.4370    6.7580 C   0  0  0  0  0  0  0  0  0  0  0  0
   -5.7890  -44.1900    6.9850 C   0  0  0  0  0  0  0  0  0  0  0  0
   -4.9920  -43.9460    5.8910 C   0  0  0  0  0  0  0  0  0  0  0  0
   -3.7240  -44.5550    5.7820 C   0  0  0  0  0  0  0  0  0  0  0  0
   -1.0160  -52.7730    7.0980 H   0  0  0  0  0  0  0  0  0  0  0  0
   -3.4130  -52.2940    6.6190 H   0  0  0  0  0  0  0  0  0  0  0  0
   -4.1340  -50.0780    5.8270 H   0  0  0  0  0  0  0  0  0  0  0  0
   -2.5100  -48.2340    5.4850 H   0  0  0  0  0  0  0  0  0  0  0  0
   -0.4620  -47.0340    4.9000 H   0  0  0  0  0  0  0  0  0  0  0  0
    1.3470  -46.9680    5.0420 H   0  0  0  0  0  0  0  0  0  0  0  0
    0.3900  -45.1850    6.3860 H   0  0  0  0  0  0  0  0  0  0  0  0
    1.0670  -46.4390    7.5210 H   0  0  0  0  0  0  0  0  0  0  0  0
   -1.1680  -45.6000    8.3200 H   0  0  0  0  0  0  0  0  0  0  0  0
   -1.2980  -47.3730    7.7720 H   0  0  0  0  0  0  0  0  0  0  0  0
   -3.1050  -44.3260    4.9230 H   0  0  0  0  0  0  0  0  0  0  0  0
   -5.3530  -45.0890    8.0030 C   0  0  0  0  0  0  0  0  0  0  0  0
   -4.1050  -45.7720    7.8900 C   0  0  0  0  0  0  0  0  0  0  0  0
   -3.8100  -46.7860    8.8500 C   0  0  0  0  0  0  0  0  0  0  0  0
   -4.6530  -47.0380    9.9050 C   0  0  0  0  0  0  0  0  0  0  0  0
   -5.8500  -46.2870   10.0620 C   0  0  0  0  0  0  0  0  0  0  0  0
   -6.1970  -45.3450    9.1310 C   0  0  0  0  0  0  0  0  0  0  0  0
   -2.9300  -47.4160    8.7320 H   0  0  0  0  0  0  0  0  0  0  0  0
   -4.4370  -47.8320   10.6190 H   0  0  0  0  0  0  0  0  0  0  0  0
   -6.5000  -46.4920   10.9100 H   0  0  0  0  0  0  0  0  0  0  0  0
   -7.1300  -44.7900    9.2220 H   0  0  0  0  0  0  0  0  0  0  0  0
   -5.3260  -43.2740    5.0990 H   0  0  0  0  0  0  0  0  0  0  0  0
   -6.7670  -43.7200    7.0780 H   0  0  0  0  0  0  0  0  0  0  0  0
    0.9880  -50.7160    6.7360 N   0  0  0  0  0  0  0  0  0  0  0  0
    1.5350  -51.5180    7.0270 H   0  0  0  0  0  0  0  0  0  0  0  0
  1  2  2  0  0  0  0
  2  3  1  0  0  0  0
  2  4  1  0  0  0  0
  4 11  2  0  0  0  0
  4 43  1  0  0  0  0
  5  6  1  0  0  0  0
  5 10  2  0  0  0  0
  5 43  1  0  0  0  0
  6  7  2  0  0  0  0
  6 20  1  0  0  0  0
  7  8  1  0  0  0  0
  7 21  1  0  0  0  0
  8  9  2  0  0  0  0
  8 22  1  0  0  0  0
  9 10  1  0  0  0  0
  9 23  1  0  0  0  0
 10 11  1  0  0  0  0
 11 12  1  0  0  0  0
 12 24  1  0  0  0  0
 12 25  1  0  0  0  0
 12 13  1  0  0  0  0
 13 14  1  0  0  0  0
 13 26  1  0  0  0  0
 13 27  1  0  0  0  0
 14 15  1  0  0  0  0
 14 28  1  0  0  0  0
 14 29  1  0  0  0  0
 15 16  1  0  0  0  0
 16 19  2  0  0  0  0
 16 32  1  0  0  0  0
 17 18  2  0  0  0  0
 17 31  1  0  0  0  0
 17 42  1  0  0  0  0
 18 19  1  0  0  0  0
 18 41  1  0  0  0  0
 19 30  1  0  0  0  0
 31 32  2  0  0  0  0
 31 36  1  0  0  0  0
 32 33  1  0  0  0  0
 33 34  2  0  0  0  0
 33 37  1  0  0  0  0
 34 35  1  0  0  0  0
 34 38  1  0  0  0  0
 35 36  2  0  0  0  0
 35 39  1  0  0  0  0
 36 40  1  0  0  0  0
 43 44  1  0  0  0  0
M  CHG  1   3  -1
M  END
$$$$
