48
 OpenBabel02232411163D
Structure written by MMmdl.
 42 45  0  0  0  0  0  0  0  0999 V2000
    3.7340  -49.9210    5.6310 O   0  0  0  0  0  0  0  0  0  0  0  0
    2.9870  -49.1730    6.2940 C   0  0  0  0  0  0  0  0  0  0  0  0
    3.3360  -48.2170    6.9980 O   0  5  0  0  0  0  0  0  0  0  0  0
    1.4930  -49.5470    6.2340 C   0  0  0  0  0  0  0  0  0  0  0  0
   -0.2580  -51.0280    6.2980 C   0  0  0  0  0  0  0  0  0  0  0  0
   -1.0940  -52.1490    6.4420 C   0  0  0  0  0  0  0  0  0  0  0  0
   -2.4610  -51.9470    6.3160 C   0  0  0  0  0  0  0  0  0  0  0  0
   -2.9930  -50.6650    6.0360 C   0  0  0  0  0  0  0  0  0  0  0  0
   -2.1720  -49.5550    5.8890 C   0  0  0  0  0  0  0  0  0  0  0  0
   -0.7840  -49.7130    6.0310 C   0  0  0  0  0  0  0  0  0  0  0  0
    0.3420  -48.8010    6.0090 C   0  0  0  0  0  0  0  0  0  0  0  0
    0.1690  -47.3280    5.8770 C   0  0  0  0  0  0  0  0  0  0  0  0
   -0.2810  -46.7680    7.2430 C   0  0  0  0  0  0  0  0  0  0  0  0
   -0.9340  -45.3950    7.1870 C   0  0  0  0  0  0  0  0  0  0  0  0
   -2.2580  -45.4290    6.5550 O   0  0  0  0  0  0  0  0  0  0  0  0
   -3.3650  -45.5550    7.3440 C   0  0  0  0  0  0  0  0  0  0  0  0
   -5.8120  -45.6950    8.8240 C   0  0  0  0  0  0  0  0  0  0  0  0
   -4.6550  -46.3100    9.2670 C   0  0  0  0  0  0  0  0  0  0  0  0
   -3.4350  -46.2410    8.5540 C   0  0  0  0  0  0  0  0  0  0  0  0
   -0.6920  -53.1390    6.6550 H   0  0  0  0  0  0  0  0  0  0  0  0
   -3.1500  -52.7820    6.4410 H   0  0  0  0  0  0  0  0  0  0  0  0
   -4.0740  -50.5570    5.9370 H   0  0  0  0  0  0  0  0  0  0  0  0
   -2.6090  -48.5790    5.6760 H   0  0  0  0  0  0  0  0  0  0  0  0
   -0.6280  -47.1150    5.1200 H   0  0  0  0  0  0  0  0  0  0  0  0
    1.1090  -46.8280    5.5520 H   0  0  0  0  0  0  0  0  0  0  0  0
    0.6100  -46.6910    7.9100 H   0  0  0  0  0  0  0  0  0  0  0  0
   -1.0070  -47.4870    7.6970 H   0  0  0  0  0  0  0  0  0  0  0  0
   -0.4190  -44.7090    6.4780 H   0  0  0  0  0  0  0  0  0  0  0  0
   -1.0380  -44.9420    8.1970 H   0  0  0  0  0  0  0  0  0  0  0  0
   -2.5740  -46.7470    8.9780 H   0  0  0  0  0  0  0  0  0  0  0  0
   -4.6780  -46.8780   10.2010 H   0  0  0  0  0  0  0  0  0  0  0  0
   -6.7400  -45.7370    9.3840 H   0  0  0  0  0  0  0  0  0  0  0  0
    1.1350  -50.9020    6.4090 N   0  0  0  0  0  0  0  0  0  0  0  0
    1.7540  -51.6880    6.5690 H   0  0  0  0  0  0  0  0  0  0  0  0
   -6.1750  -43.8620    5.6610 C   0  0  0  0  0  0  0  0  0  0  0  0
   -6.7370  -44.3380    6.8760 N   0  0  0  0  0  0  0  0  0  0  0  0
   -5.7400  -45.0170    7.5870 C   0  0  0  0  0  0  0  0  0  0  0  0
   -4.5300  -44.9280    6.8220 C   0  0  0  0  0  0  0  0  0  0  0  0
   -4.8360  -44.1990    5.6200 C   0  0  0  0  0  0  0  0  0  0  0  0
   -7.7130  -44.2950    7.1120 H   0  0  0  0  0  0  0  0  0  0  0  0
   -4.1450  -43.9710    4.8300 H   0  0  0  0  0  0  0  0  0  0  0  0
   -6.7760  -43.3230    4.9530 H   0  0  0  0  0  0  0  0  0  0  0  0
  1  2  2  0  0  0  0
  2  3  1  0  0  0  0
  2  4  1  0  0  0  0
  4 11  2  0  0  0  0
  4 33  1  0  0  0  0
  5  6  2  0  0  0  0
  5 10  1  0  0  0  0
  5 33  1  0  0  0  0
  6  7  1  0  0  0  0
  6 20  1  0  0  0  0
  7  8  2  0  0  0  0
  7 21  1  0  0  0  0
  8  9  1  0  0  0  0
  8 22  1  0  0  0  0
  9 10  2  0  0  0  0
  9 23  1  0  0  0  0
 10 11  1  0  0  0  0
 11 12  1  0  0  0  0
 12 24  1  0  0  0  0
 12 25  1  0  0  0  0
 12 13  1  0  0  0  0
 13 14  1  0  0  0  0
 13 26  1  0  0  0  0
 13 27  1  0  0  0  0
 14 15  1  0  0  0  0
 14 28  1  0  0  0  0
 14 29  1  0  0  0  0
 15 16  1  0  0  0  0
 16 19  2  0  0  0  0
 16 38  1  0  0  0  0
 17 18  2  0  0  0  0
 17 32  1  0  0  0  0
 17 37  1  0  0  0  0
 18 19  1  0  0  0  0
 18 31  1  0  0  0  0
 19 30  1  0  0  0  0
 33 34  1  0  0  0  0
 35 36  1  0  0  0  0
 35 39  2  0  0  0  0
 35 42  1  0  0  0  0
 36 37  1  0  0  0  0
 36 40  1  0  0  0  0
 37 38  2  0  0  0  0
 38 39  1  0  0  0  0
 39 41  1  0  0  0  0
M  CHG  1   3  -1
M  END
$$$$
