23486
 OpenBabel02232411173D
Structure written by MMmdl.
 60 63  0  0  0  0  0  0  0  0999 V2000
   42.3730   18.0110   12.6470 O   0  0  0  0  0  0  0  0  0  0  0  0
   41.2310   17.6860   12.9870 C   0  0  0  0  0  0  0  0  0  0  0  0
   40.1800   18.3260   12.7680 O   0  5  0  0  0  0  0  0  0  0  0  0
   41.0320   16.3400   13.7490 C   0  0  0  0  0  0  0  0  0  0  0  0
   42.3960   15.8100   13.7570 O   0  0  0  0  0  0  0  0  0  0  0  0
   42.6320   14.8950   14.7340 C   0  0  0  0  0  0  0  0  0  0  0  0
   42.0370   13.5730   14.7160 C   0  0  0  0  0  0  0  0  0  0  0  0
   40.9440   13.1540   13.4660 Cl  0  0  0  0  0  0  0  0  0  0  0  0
   42.4510   12.7380   15.7200 C   0  0  0  0  0  0  0  0  0  0  0  0
   42.0130   11.3930   16.0250 C   0  0  0  0  0  0  0  0  0  0  0  0
   42.8380   10.4430   16.6730 C   0  0  0  0  0  0  0  0  0  0  0  0
   42.3680    9.1520   16.8900 C   0  0  0  0  0  0  0  0  0  0  0  0
   41.1040    8.7340   16.4420 C   0  0  0  0  0  0  0  0  0  0  0  0
   40.2720    9.6690   15.8140 C   0  0  0  0  0  0  0  0  0  0  0  0
   38.9200    9.4150   15.4060 N   0  0  0  0  0  0  0  0  0  0  0  0
   38.4710    8.0540   15.0070 C   0  0  0  0  0  0  0  0  0  0  0  0
   36.9350    8.1400   14.7980 C   0  0  0  0  0  0  0  0  0  0  0  0
   36.3630    6.8110   14.2770 C   0  0  0  0  0  0  0  0  0  0  0  0
   37.0420    6.4200   13.0030 N   0  0  0  0  0  0  0  0  0  0  0  0
   36.2310    5.2500   12.0600 S   0  0  0  0  0  0  0  0  0  0  0  0
   37.1050    4.8630   10.9570 O   0  0  0  0  0  0  0  0  0  0  0  0
   35.0020    5.8840   11.5650 O   0  0  0  0  0  0  0  0  0  0  0  0
   35.9090    3.8740   13.1130 C   0  0  0  0  0  0  0  0  0  0  0  0
   35.5540    2.6460   12.3400 C   0  0  0  0  0  0  0  0  0  0  0  0
   34.2470    2.1400   12.3790 C   0  0  0  0  0  0  0  0  0  0  0  0
   33.9140    0.9960   11.6480 C   0  0  0  0  0  0  0  0  0  0  0  0
   34.8770    0.3540   10.8660 C   0  0  0  0  0  0  0  0  0  0  0  0
   36.1880    0.8430   10.8420 C   0  0  0  0  0  0  0  0  0  0  0  0
   36.5320    1.9750   11.5840 C   0  0  0  0  0  0  0  0  0  0  0  0
   38.5120    6.2340   13.2200 C   0  0  0  0  0  0  0  0  0  0  0  0
   39.1330    7.5580   13.6950 C   0  0  0  0  0  0  0  0  0  0  0  0
   40.7200   11.0000   15.6540 C   0  0  0  0  0  0  0  0  0  0  0  0
   43.6440   13.5930   16.6740 S   0  0  0  0  0  0  0  0  0  0  0  0
   43.5360   15.0780   15.7460 C   0  0  0  0  0  0  0  0  0  0  0  0
   44.3490   16.3130   16.1510 C   0  0  0  0  0  0  0  0  0  0  0  0
   44.9920   16.1930   17.2190 O   0  0  0  0  0  0  0  0  0  0  0  0
   44.3430   17.3000   15.4160 O   0  5  0  0  0  0  0  0  0  0  0  0
   40.3780   15.6470   13.1820 H   0  0  0  0  0  0  0  0  0  0  0  0
   40.6490   16.4850   14.7790 H   0  0  0  0  0  0  0  0  0  0  0  0
   43.8450   10.7010   17.0030 H   0  0  0  0  0  0  0  0  0  0  0  0
   42.9960    8.4270   17.4100 H   0  0  0  0  0  0  0  0  0  0  0  0
   40.7930    7.7030   16.5880 H   0  0  0  0  0  0  0  0  0  0  0  0
   38.5960   10.1020   14.6850 H   0  0  0  0  0  0  0  0  0  0  0  0
   38.6900    7.3260   15.8300 H   0  0  0  0  0  0  0  0  0  0  0  0
   36.4450    8.3670   15.7750 H   0  0  0  0  0  0  0  0  0  0  0  0
   36.6990    8.9480   14.0660 H   0  0  0  0  0  0  0  0  0  0  0  0
   36.5070    6.0200   15.0680 H   0  0  0  0  0  0  0  0  0  0  0  0
   35.2670    6.9420   14.0880 H   0  0  0  0  0  0  0  0  0  0  0  0
   36.8090    3.6520   13.7620 H   0  0  0  0  0  0  0  0  0  0  0  0
   35.0990    4.1190   13.8600 H   0  0  0  0  0  0  0  0  0  0  0  0
   33.4750    2.6290   12.9800 H   0  0  0  0  0  0  0  0  0  0  0  0
   32.8910    0.6100   11.6830 H   0  0  0  0  0  0  0  0  0  0  0  0
   34.6050   -0.5230   10.2750 H   0  0  0  0  0  0  0  0  0  0  0  0
   36.9420    0.3310   10.2380 H   0  0  0  0  0  0  0  0  0  0  0  0
   37.5680    2.3310   11.5730 H   0  0  0  0  0  0  0  0  0  0  0  0
   38.7030    5.4410   13.9970 H   0  0  0  0  0  0  0  0  0  0  0  0
   38.9920    5.9290   12.2560 H   0  0  0  0  0  0  0  0  0  0  0  0
   38.9850    8.3300   12.9100 H   0  0  0  0  0  0  0  0  0  0  0  0
   40.2210    7.3900   13.8700 H   0  0  0  0  0  0  0  0  0  0  0  0
   40.0180   11.7250   15.2500 H   0  0  0  0  0  0  0  0  0  0  0  0
  1  2  2  0  0  0  0
  2  3  1  0  0  0  0
  2  4  1  0  0  0  0
  4  5  1  0  0  0  0
  4 38  1  0  0  0  0
  4 39  1  0  0  0  0
  5  6  1  0  0  0  0
  6 34  2  0  0  0  0
  6  7  1  0  0  0  0
  7  8  1  0  0  0  0
  7  9  2  0  0  0  0
  9 10  1  0  0  0  0
  9 33  1  0  0  0  0
 10 32  2  0  0  0  0
 10 11  1  0  0  0  0
 11 12  2  0  0  0  0
 11 40  1  0  0  0  0
 12 13  1  0  0  0  0
 12 41  1  0  0  0  0
 13 14  2  0  0  0  0
 13 42  1  0  0  0  0
 14 15  1  0  0  0  0
 14 32  1  0  0  0  0
 15 16  1  0  0  0  0
 15 43  1  0  0  0  0
 16 31  1  0  0  0  0
 16 17  1  0  0  0  0
 16 44  1  0  0  0  0
 17 18  1  0  0  0  0
 17 45  1  0  0  0  0
 17 46  1  0  0  0  0
 18 19  1  0  0  0  0
 18 47  1  0  0  0  0
 18 48  1  0  0  0  0
 19 20  1  0  0  0  0
 19 30  1  0  0  0  0
 20 21  2  0  0  0  0
 20 22  2  0  0  0  0
 20 23  1  0  0  0  0
 23 24  1  0  0  0  0
 23 49  1  0  0  0  0
 23 50  1  0  0  0  0
 24 29  2  0  0  0  0
 24 25  1  0  0  0  0
 25 26  2  0  0  0  0
 25 51  1  0  0  0  0
 26 27  1  0  0  0  0
 26 52  1  0  0  0  0
 27 28  2  0  0  0  0
 27 53  1  0  0  0  0
 28 29  1  0  0  0  0
 28 54  1  0  0  0  0
 29 55  1  0  0  0  0
 30 31  1  0  0  0  0
 30 56  1  0  0  0  0
 30 57  1  0  0  0  0
 31 58  1  0  0  0  0
 31 59  1  0  0  0  0
 32 60  1  0  0  0  0
 33 34  1  0  0  0  0
 34 35  1  0  0  0  0
 35 36  2  0  0  0  0
 35 37  1  0  0  0  0
M  CHG  2   3  -1  37  -1
M  END
$$$$
