ejm_48
 OpenBabel02232411173D
Structure written by MMmdl.
 42 44  0  0  0  0  0  0  0  0999 V2000
   -1.5690   21.5130  -27.6190 C   0  0  0  0  0  0  0  0  0  0  0  0
   -1.0770   22.5910  -28.3580 C   0  0  0  0  0  0  0  0  0  0  0  0
   -1.8810   23.1690  -29.3430 C   0  0  0  0  0  0  0  0  0  0  0  0
   -3.1670   22.6890  -29.6250 C   0  0  0  0  0  0  0  0  0  0  0  0
   -3.6340   21.6050  -28.8670 C   0  0  0  0  0  0  0  0  0  0  0  0
   -2.8540   21.0210  -27.8670 C   0  0  0  0  0  0  0  0  0  0  0  0
   -5.1980   20.9760  -29.1780 Cl  0  0  0  0  0  0  0  0  0  0  0  0
   -4.0340   23.2470  -30.7170 C   0  0  0  0  0  0  0  0  0  0  0  0
   -4.4490   22.5710  -31.6330 O   0  0  0  0  0  0  0  0  0  0  0  0
   -4.3350   24.6150  -30.5450 N   0  0  0  0  0  0  0  0  0  0  0  0
   -5.1420   25.4260  -31.3920 C   0  0  0  0  0  0  0  0  0  0  0  0
   -5.8180   24.9430  -32.5230 C   0  0  0  0  0  0  0  0  0  0  0  0
   -6.6170   25.8360  -33.2510 C   0  0  0  0  0  0  0  0  0  0  0  0
   -6.7570   27.1490  -32.9370 N   0  0  0  0  0  0  0  0  0  0  0  0
   -6.0760   27.6150  -31.8290 C   0  0  0  0  0  0  0  0  0  0  0  0
   -5.2670   26.7860  -31.0370 C   0  0  0  0  0  0  0  0  0  0  0  0
   -6.2790   28.9950  -31.5310 N   0  0  0  0  0  0  0  0  0  0  0  0
   -5.4330   29.7860  -30.7030 C   0  0  0  0  0  0  0  0  0  0  0  0
   -4.4640   29.2870  -30.1650 O   0  0  0  0  0  0  0  0  0  0  0  0
   -1.2500   24.5100  -30.2030 Cl  0  0  0  0  0  0  0  0  0  0  0  0
   -0.9470   21.0560  -26.8420 H   0  0  0  0  0  0  0  0  0  0  0  0
   -0.0750   22.9780  -28.1470 H   0  0  0  0  0  0  0  0  0  0  0  0
   -3.2310   20.1920  -27.2660 H   0  0  0  0  0  0  0  0  0  0  0  0
   -3.9190   25.0940  -29.7240 H   0  0  0  0  0  0  0  0  0  0  0  0
   -5.7520   23.8970  -32.8330 H   0  0  0  0  0  0  0  0  0  0  0  0
   -7.1790   25.4810  -34.1320 H   0  0  0  0  0  0  0  0  0  0  0  0
   -4.7360   27.1870  -30.1680 H   0  0  0  0  0  0  0  0  0  0  0  0
   -7.1420   29.4180  -31.9390 H   0  0  0  0  0  0  0  0  0  0  0  0
   -6.9410   31.3680  -30.7250 H   0  0  0  0  0  0  0  0  0  0  0  0
   -5.8440   31.2470  -30.5480 C   0  0  0  0  0  0  0  0  0  0  0  0
   -5.4940   31.7780  -29.1350 C   0  0  0  0  0  0  0  0  0  0  0  0
   -4.2720   32.7010  -29.2850 C   0  0  0  0  0  0  0  0  0  0  0  0
   -4.2680   33.1750  -30.7500 C   0  0  0  0  0  0  0  0  0  0  0  0
   -5.0660   32.1320  -31.5580 C   0  0  0  0  0  0  0  0  0  0  0  0
   -5.2570   30.9620  -28.4200 H   0  0  0  0  0  0  0  0  0  0  0  0
   -6.3630   32.3580  -28.7440 H   0  0  0  0  0  0  0  0  0  0  0  0
   -4.3410   33.5650  -28.5860 H   0  0  0  0  0  0  0  0  0  0  0  0
   -3.3350   32.1410  -29.0600 H   0  0  0  0  0  0  0  0  0  0  0  0
   -4.7670   34.1710  -30.8220 H   0  0  0  0  0  0  0  0  0  0  0  0
   -3.2270   33.2730  -31.1230 H   0  0  0  0  0  0  0  0  0  0  0  0
   -4.3810   31.5190  -32.1800 H   0  0  0  0  0  0  0  0  0  0  0  0
   -5.8020   32.6510  -32.2130 H   0  0  0  0  0  0  0  0  0  0  0  0
  1  2  2  0  0  0  0
  1  6  1  0  0  0  0
  1 21  1  0  0  0  0
  2  3  1  0  0  0  0
  2 22  1  0  0  0  0
  3  4  2  0  0  0  0
  3 20  1  0  0  0  0
  4  5  1  0  0  0  0
  4  8  1  0  0  0  0
  5  6  2  0  0  0  0
  5  7  1  0  0  0  0
  6 23  1  0  0  0  0
  8  9  2  0  0  0  0
  8 10  1  0  0  0  0
 10 11  1  0  0  0  0
 10 24  1  0  0  0  0
 11 12  2  0  0  0  0
 11 16  1  0  0  0  0
 12 13  1  0  0  0  0
 12 25  1  0  0  0  0
 13 14  2  0  0  0  0
 13 26  1  0  0  0  0
 14 15  1  0  0  0  0
 15 16  2  0  0  0  0
 15 17  1  0  0  0  0
 16 27  1  0  0  0  0
 17 18  1  0  0  0  0
 17 28  1  0  0  0  0
 18 19  2  0  0  0  0
 18 30  1  0  0  0  0
 29 30  1  0  0  0  0
 30 31  1  0  0  0  0
 30 34  1  0  0  0  0
 31 32  1  0  0  0  0
 31 35  1  0  0  0  0
 31 36  1  0  0  0  0
 32 33  1  0  0  0  0
 32 37  1  0  0  0  0
 32 38  1  0  0  0  0
 33 34  1  0  0  0  0
 33 39  1  0  0  0  0
 33 40  1  0  0  0  0
 34 41  1  0  0  0  0
 34 42  1  0  0  0  0
M  END
$$$$
