23467
 OpenBabel02232411173D
Structure written by MMmdl.
 31 32  0  0  0  0  0  0  0  0999 V2000
   38.6660    8.6100   17.7820 C   0  0  0  0  0  0  0  0  0  0  0  0
   39.1710    9.8980   17.3630 O   0  0  0  0  0  0  0  0  0  0  0  0
   40.5510   10.0640   17.3350 C   0  0  0  0  0  0  0  0  0  0  0  0
   41.4970    9.1280   17.7510 C   0  0  0  0  0  0  0  0  0  0  0  0
   42.8530    9.4830   17.6580 C   0  0  0  0  0  0  0  0  0  0  0  0
   43.2450   10.7170   17.1540 C   0  0  0  0  0  0  0  0  0  0  0  0
   42.2740   11.6540   16.7240 C   0  0  0  0  0  0  0  0  0  0  0  0
   42.6610   12.9290   16.1520 C   0  0  0  0  0  0  0  0  0  0  0  0
   43.8410   13.9570   16.9240 S   0  0  0  0  0  0  0  0  0  0  0  0
   43.6870   15.2280   15.7420 C   0  0  0  0  0  0  0  0  0  0  0  0
   44.4630   16.5280   15.9200 C   0  0  0  0  0  0  0  0  0  0  0  0
   43.9830   17.5810   15.5040 O   0  0  0  0  0  0  0  0  0  0  0  0
   45.5780   16.4000   16.4760 O   0  5  0  0  0  0  0  0  0  0  0  0
   42.8200   14.8340   14.7540 C   0  0  0  0  0  0  0  0  0  0  0  0
   42.6820   15.5390   13.6020 O   0  0  0  0  0  0  0  0  0  0  0  0
   41.3260   16.0160   13.3170 C   0  0  0  0  0  0  0  0  0  0  0  0
   41.5530   17.4990   12.8730 C   0  0  0  0  0  0  0  0  0  0  0  0
   42.6690   17.8250   12.4450 O   0  0  0  0  0  0  0  0  0  0  0  0
   40.5530   18.2440   12.9490 O   0  5  0  0  0  0  0  0  0  0  0  0
   42.2210   13.5400   15.0090 C   0  0  0  0  0  0  0  0  0  0  0  0
   40.9230   12.7550   13.8600 Br  0  0  0  0  0  0  0  0  0  0  0  0
   40.9170   11.3290   16.8380 C   0  0  0  0  0  0  0  0  0  0  0  0
   37.5630    8.7360   17.7000 H   0  0  0  0  0  0  0  0  0  0  0  0
   39.0240    7.8100   17.0980 H   0  0  0  0  0  0  0  0  0  0  0  0
   38.9600    8.3980   18.8340 H   0  0  0  0  0  0  0  0  0  0  0  0
   41.2250    8.1490   18.1360 H   0  0  0  0  0  0  0  0  0  0  0  0
   43.6000    8.7580   17.9920 H   0  0  0  0  0  0  0  0  0  0  0  0
   44.3100   10.9450   17.0860 H   0  0  0  0  0  0  0  0  0  0  0  0
   40.9520   15.3830   12.4850 H   0  0  0  0  0  0  0  0  0  0  0  0
   40.6570   15.9270   14.1980 H   0  0  0  0  0  0  0  0  0  0  0  0
   40.1310   12.0250   16.5400 H   0  0  0  0  0  0  0  0  0  0  0  0
  1  2  1  0  0  0  0
  1 23  1  0  0  0  0
  1 24  1  0  0  0  0
  1 25  1  0  0  0  0
  2  3  1  0  0  0  0
  3 22  2  0  0  0  0
  3  4  1  0  0  0  0
  4  5  2  0  0  0  0
  4 26  1  0  0  0  0
  5  6  1  0  0  0  0
  5 27  1  0  0  0  0
  6  7  2  0  0  0  0
  6 28  1  0  0  0  0
  7  8  1  0  0  0  0
  7 22  1  0  0  0  0
  8 20  2  0  0  0  0
  8  9  1  0  0  0  0
  9 10  1  0  0  0  0
 10 11  1  0  0  0  0
 10 14  2  0  0  0  0
 11 12  2  0  0  0  0
 11 13  1  0  0  0  0
 14 15  1  0  0  0  0
 14 20  1  0  0  0  0
 15 16  1  0  0  0  0
 16 17  1  0  0  0  0
 16 29  1  0  0  0  0
 16 30  1  0  0  0  0
 17 18  2  0  0  0  0
 17 19  1  0  0  0  0
 20 21  1  0  0  0  0
 22 31  1  0  0  0  0
M  CHG  2  13  -1  19  -1
M  END
$$$$
