18635-1
 OpenBabel02232411163D
Structure written by MMmdl.
 44 45  0  0  0  0  0  0  0  0999 V2000
   24.4430   11.0080   30.7830 C   0  0  0  0  0  0  0  0  0  0  0  0
   23.0940   11.2460   30.1410 C   0  0  0  0  0  0  0  0  0  0  0  0
   22.0300   11.2750   31.1670 O   0  0  0  0  0  0  0  0  0  0  0  0
   21.4580   10.1170   31.5670 C   0  0  0  0  0  0  0  0  0  0  0  0
   21.9490    8.9330   31.1360 N   0  0  0  0  0  0  0  0  0  0  0  0
   21.2620    7.7820   31.4980 C   0  0  0  0  0  0  0  0  0  0  0  0
   20.1230    7.8050   32.2960 C   0  0  0  0  0  0  0  0  0  0  0  0
   19.6190    9.0540   32.7510 C   0  0  0  0  0  0  0  0  0  0  0  0
   18.4740    9.0900   33.5050 N   0  0  0  0  0  0  0  0  0  0  0  0
   20.3020   10.2590   32.3930 C   0  0  0  0  0  0  0  0  0  0  0  0
   19.8790   11.5540   32.7590 C   0  0  0  0  0  0  0  0  0  0  0  0
   19.5820   12.6450   33.0180 N   0  0  0  0  0  0  0  0  0  0  0  0
   21.8580    6.6280   30.9390 N   0  0  0  0  0  0  0  0  0  0  0  0
   21.3270    5.3130   30.9050 C   0  0  0  0  0  0  0  0  0  0  0  0
   20.2920    5.0140   31.4600 O   0  0  0  0  0  0  0  0  0  0  0  0
   22.1510    4.3520   30.0600 C   0  0  0  0  0  0  0  0  0  0  0  0
   23.4720    4.0230   30.7080 C   0  0  0  0  0  0  0  0  0  0  0  0
   24.6760    4.6800   30.3930 C   0  0  0  0  0  0  0  0  0  0  0  0
   24.8270    5.7350   29.3420 C   0  0  0  0  0  0  0  0  0  0  0  0
   25.8420    4.3270   31.1030 C   0  0  0  0  0  0  0  0  0  0  0  0
   25.8280    3.3400   32.0810 C   0  0  0  0  0  0  0  0  0  0  0  0
   24.6340    2.6550   32.3730 C   0  0  0  0  0  0  0  0  0  0  0  0
   24.6280    1.5810   33.4110 C   0  0  0  0  0  0  0  0  0  0  0  0
   23.4710    3.0030   31.6780 C   0  0  0  0  0  0  0  0  0  0  0  0
   24.4670   10.0320   31.3220 H   0  0  0  0  0  0  0  0  0  0  0  0
   24.6980   11.8230   31.4920 H   0  0  0  0  0  0  0  0  0  0  0  0
   25.2280   10.9720   29.9860 H   0  0  0  0  0  0  0  0  0  0  0  0
   22.9910   12.2840   29.7420 H   0  0  0  0  0  0  0  0  0  0  0  0
   22.8510   10.4810   29.3690 H   0  0  0  0  0  0  0  0  0  0  0  0
   19.5990    6.8850   32.5620 H   0  0  0  0  0  0  0  0  0  0  0  0
   17.9820    8.2170   33.7780 H   0  0  0  0  0  0  0  0  0  0  0  0
   18.0630    9.9750   33.8040 H   0  0  0  0  0  0  0  0  0  0  0  0
   22.7600    6.8050   30.4570 H   0  0  0  0  0  0  0  0  0  0  0  0
   21.5620    3.4040   29.9320 H   0  0  0  0  0  0  0  0  0  0  0  0
   22.2940    4.7900   29.0420 H   0  0  0  0  0  0  0  0  0  0  0  0
   25.0740    6.7190   29.8220 H   0  0  0  0  0  0  0  0  0  0  0  0
   25.6890    5.4760   28.6720 H   0  0  0  0  0  0  0  0  0  0  0  0
   23.9360    5.8690   28.6980 H   0  0  0  0  0  0  0  0  0  0  0  0
   26.7820    4.8410   30.8770 H   0  0  0  0  0  0  0  0  0  0  0  0
   26.7470    3.0930   32.6190 H   0  0  0  0  0  0  0  0  0  0  0  0
   23.6850    0.9840   33.3940 H   0  0  0  0  0  0  0  0  0  0  0  0
   25.4810    0.8740   33.2510 H   0  0  0  0  0  0  0  0  0  0  0  0
   24.7400    2.0310   34.4280 H   0  0  0  0  0  0  0  0  0  0  0  0
   22.5470    2.4620   31.8880 H   0  0  0  0  0  0  0  0  0  0  0  0
  1  2  1  0  0  0  0
  1 25  1  0  0  0  0
  1 26  1  0  0  0  0
  1 27  1  0  0  0  0
  2  3  1  0  0  0  0
  2 28  1  0  0  0  0
  2 29  1  0  0  0  0
  3  4  1  0  0  0  0
  4 10  2  0  0  0  0
  4  5  1  0  0  0  0
  5  6  2  0  0  0  0
  6  7  1  0  0  0  0
  6 13  1  0  0  0  0
  7  8  2  0  0  0  0
  7 30  1  0  0  0  0
  8  9  1  0  0  0  0
  8 10  1  0  0  0  0
  9 31  1  0  0  0  0
  9 32  1  0  0  0  0
 10 11  1  0  0  0  0
 11 12  3  0  0  0  0
 13 14  1  0  0  0  0
 13 33  1  0  0  0  0
 14 15  2  0  0  0  0
 14 16  1  0  0  0  0
 16 17  1  0  0  0  0
 16 34  1  0  0  0  0
 16 35  1  0  0  0  0
 17 24  2  0  0  0  0
 17 18  1  0  0  0  0
 18 19  1  0  0  0  0
 18 20  2  0  0  0  0
 19 36  1  0  0  0  0
 19 37  1  0  0  0  0
 19 38  1  0  0  0  0
 20 21  1  0  0  0  0
 20 39  1  0  0  0  0
 21 22  2  0  0  0  0
 21 40  1  0  0  0  0
 22 23  1  0  0  0  0
 22 24  1  0  0  0  0
 23 41  1  0  0  0  0
 23 42  1  0  0  0  0
 23 43  1  0  0  0  0
 24 44  1  0  0  0  0
M  END
$$$$
