1h1q
 OpenBabel02232411153D
Structure written by MMmdl.
 45 48  0  0  0  0  0  0  0  0999 V2000
    1.9250   28.8540    6.8020 C   0  0  0  0  0  0  0  0  0  0  0  0
   -1.5610   31.4570    7.9470 C   0  0  0  0  0  0  0  0  0  0  0  0
   -0.0490   25.9910    8.9190 C   0  0  0  0  0  0  0  0  0  0  0  0
   -0.8540   25.2780   10.0130 C   0  0  0  0  0  0  0  0  0  0  0  0
   -0.6880   23.7570    9.7900 C   0  0  0  0  0  0  0  0  0  0  0  0
   -1.3630   22.9500   10.9070 C   0  0  0  0  0  0  0  0  0  0  0  0
   -0.8590   23.3730   12.2960 C   0  0  0  0  0  0  0  0  0  0  0  0
   -1.0490   24.8810   12.5200 C   0  0  0  0  0  0  0  0  0  0  0  0
   -0.3700   25.7010   11.4130 C   0  0  0  0  0  0  0  0  0  0  0  0
    4.5030   25.3370    7.8740 C   0  0  0  0  0  0  0  0  0  0  0  0
    5.3830   24.9170    6.8730 C   0  0  0  0  0  0  0  0  0  0  0  0
    5.5230   25.6840    5.7100 C   0  0  0  0  0  0  0  0  0  0  0  0
    4.7730   26.8450    5.5360 C   0  0  0  0  0  0  0  0  0  0  0  0
    1.2070   27.9040    7.5250 N   0  0  0  0  0  0  0  0  0  0  0  0
    0.0080   28.2350    8.0670 C   0  0  0  0  0  0  0  0  0  0  0  0
   -0.6740   27.3340    8.7930 O   0  0  0  0  0  0  0  0  0  0  0  0
   -0.5190   29.5410    7.8870 C   0  0  0  0  0  0  0  0  0  0  0  0
   -1.6660   30.1900    8.3580 N   0  0  0  0  0  0  0  0  0  0  0  0
   -0.3480   31.6900    7.2050 N   0  0  0  0  0  0  0  0  0  0  0  0
    0.3150   30.4680    7.1380 C   0  0  0  0  0  0  0  0  0  0  0  0
    1.5130   30.1550    6.5480 N   0  0  0  0  0  0  0  0  0  0  0  0
    3.1570   28.4730    6.2920 N   0  0  0  0  0  0  0  0  0  0  0  0
    3.8670   27.2510    6.5410 C   0  0  0  0  0  0  0  0  0  0  0  0
    3.7510   26.5060    7.7250 C   0  0  0  0  0  0  0  0  0  0  0  0
   -2.2620   32.2630    8.1380 H   0  0  0  0  0  0  0  0  0  0  0  0
    1.0180   26.1130    9.2110 H   0  0  0  0  0  0  0  0  0  0  0  0
   -0.1590   25.5120    7.9250 H   0  0  0  0  0  0  0  0  0  0  0  0
   -1.9350   25.5430    9.9220 H   0  0  0  0  0  0  0  0  0  0  0  0
   -1.1410   23.4770    8.8140 H   0  0  0  0  0  0  0  0  0  0  0  0
    0.4010   23.5020    9.7690 H   0  0  0  0  0  0  0  0  0  0  0  0
   -2.4620   23.1110   10.8610 H   0  0  0  0  0  0  0  0  0  0  0  0
   -1.1510   21.8650   10.7600 H   0  0  0  0  0  0  0  0  0  0  0  0
   -1.4180   22.8090   13.0780 H   0  0  0  0  0  0  0  0  0  0  0  0
    0.2240   23.1240   12.3820 H   0  0  0  0  0  0  0  0  0  0  0  0
   -2.1380   25.1160   12.5550 H   0  0  0  0  0  0  0  0  0  0  0  0
   -0.6010   25.1640   13.5010 H   0  0  0  0  0  0  0  0  0  0  0  0
    0.7340   25.5500   11.4920 H   0  0  0  0  0  0  0  0  0  0  0  0
   -0.5900   26.7810   11.5710 H   0  0  0  0  0  0  0  0  0  0  0  0
    4.3930   24.7450    8.7880 H   0  0  0  0  0  0  0  0  0  0  0  0
    5.9610   24.0010    6.9890 H   0  0  0  0  0  0  0  0  0  0  0  0
    6.2240   25.3730    4.9310 H   0  0  0  0  0  0  0  0  0  0  0  0
    4.8960   27.4360    4.6270 H   0  0  0  0  0  0  0  0  0  0  0  0
   -0.0840   32.5740    6.7470 H   0  0  0  0  0  0  0  0  0  0  0  0
    3.6510   29.1330    5.6430 H   0  0  0  0  0  0  0  0  0  0  0  0
    3.0840   26.8140    8.5320 H   0  0  0  0  0  0  0  0  0  0  0  0
  1 14  2  0  0  0  0
  1 21  1  0  0  0  0
  1 22  1  0  0  0  0
  2 18  2  0  0  0  0
  2 19  1  0  0  0  0
  2 25  1  0  0  0  0
  3  4  1  0  0  0  0
  3 16  1  0  0  0  0
  3 26  1  0  0  0  0
  3 27  1  0  0  0  0
  4  5  1  0  0  0  0
  4  9  1  0  0  0  0
  4 28  1  0  0  0  0
  5  6  1  0  0  0  0
  5 29  1  0  0  0  0
  5 30  1  0  0  0  0
  6  7  1  0  0  0  0
  6 31  1  0  0  0  0
  6 32  1  0  0  0  0
  7  8  1  0  0  0  0
  7 33  1  0  0  0  0
  7 34  1  0  0  0  0
  8  9  1  0  0  0  0
  8 35  1  0  0  0  0
  8 36  1  0  0  0  0
  9 37  1  0  0  0  0
  9 38  1  0  0  0  0
 10 11  2  0  0  0  0
 10 24  1  0  0  0  0
 10 39  1  0  0  0  0
 11 12  1  0  0  0  0
 11 40  1  0  0  0  0
 12 13  2  0  0  0  0
 12 41  1  0  0  0  0
 13 23  1  0  0  0  0
 13 42  1  0  0  0  0
 14 15  1  0  0  0  0
 15 16  1  0  0  0  0
 15 17  2  0  0  0  0
 17 18  1  0  0  0  0
 17 20  1  0  0  0  0
 19 20  1  0  0  0  0
 19 43  1  0  0  0  0
 20 21  2  0  0  0  0
 22 23  1  0  0  0  0
 22 44  1  0  0  0  0
 23 24  2  0  0  0  0
 24 45  1  0  0  0  0
M  END
$$$$
