26.pdb
 OpenBabel02232411163D

 43 46  0  0  0  0  0  0  0  0999 V2000
    3.5960  -50.0850    6.0530 O   0  5  0  0  0  0  0  0  0  0  0  0
    2.9300  -49.1440    6.5090 C   0  0  0  0  0  0  0  0  0  0  0  0
    3.3290  -48.1240    7.0820 O   0  0  0  0  0  0  0  0  0  0  0  0
    1.3960  -49.3260    6.3560 C   0  0  0  0  0  0  0  0  0  0  0  0
    1.0160  -50.6420    6.7050 O   0  0  0  0  0  0  0  0  0  0  0  0
   -0.3670  -50.7080    6.5190 C   0  0  0  0  0  0  0  0  0  0  0  0
   -1.1840  -51.8070    6.7630 C   0  0  0  0  0  0  0  0  0  0  0  0
   -0.8110  -52.7610    7.1350 H   0  0  0  0  0  0  0  0  0  0  0  0
   -2.5470  -51.6280    6.5060 C   0  0  0  0  0  0  0  0  0  0  0  0
   -3.2420  -52.4500    6.6840 H   0  0  0  0  0  0  0  0  0  0  0  0
   -3.0490  -50.4040    6.0260 C   0  0  0  0  0  0  0  0  0  0  0  0
   -4.1200  -50.3090    5.8380 H   0  0  0  0  0  0  0  0  0  0  0  0
   -2.2140  -49.3090    5.7900 C   0  0  0  0  0  0  0  0  0  0  0  0
   -2.6330  -48.3720    5.4230 H   0  0  0  0  0  0  0  0  0  0  0  0
   -0.8470  -49.4500    6.0410 C   0  0  0  0  0  0  0  0  0  0  0  0
    0.3180  -48.5800    5.9550 C   0  0  0  0  0  0  0  0  0  0  0  0
    0.2530  -47.1660    5.5040 C   0  0  0  0  0  0  0  0  0  0  0  0
    1.1260  -46.9250    4.8490 H   0  0  0  0  0  0  0  0  0  0  0  0
   -0.6880  -47.0290    4.9090 H   0  0  0  0  0  0  0  0  0  0  0  0
    0.2410  -46.1590    6.6670 C   0  0  0  0  0  0  0  0  0  0  0  0
    0.2070  -45.1250    6.2490 H   0  0  0  0  0  0  0  0  0  0  0  0
    1.1800  -46.2830    7.2630 H   0  0  0  0  0  0  0  0  0  0  0  0
   -0.9310  -46.3270    7.6280 C   0  0  0  0  0  0  0  0  0  0  0  0
   -0.8050  -45.7030    8.5390 H   0  0  0  0  0  0  0  0  0  0  0  0
   -1.1590  -47.3930    7.8390 H   0  0  0  0  0  0  0  0  0  0  0  0
   -2.1060  -45.7700    6.9260 O   0  0  0  0  0  0  0  0  0  0  0  0
   -3.2980  -45.7890    7.5870 C   0  0  0  0  0  0  0  0  0  0  0  0
   -4.3270  -45.0410    6.8990 C   0  0  0  0  0  0  0  0  0  0  0  0
   -5.6080  -44.9460    7.5030 C   0  0  0  0  0  0  0  0  0  0  0  0
   -5.8480  -45.5890    8.7570 C   0  0  0  0  0  0  0  0  0  0  0  0
   -6.8330  -45.5020    9.2140 H   0  0  0  0  0  0  0  0  0  0  0  0
   -4.8560  -46.3290    9.3530 C   0  0  0  0  0  0  0  0  0  0  0  0
   -5.0570  -46.8590   10.2880 H   0  0  0  0  0  0  0  0  0  0  0  0
   -3.5620  -46.4350    8.7810 C   0  0  0  0  0  0  0  0  0  0  0  0
   -2.8270  -47.0340    9.3060 H   0  0  0  0  0  0  0  0  0  0  0  0
   -6.6420  -44.2450    6.8090 C   0  0  0  0  0  0  0  0  0  0  0  0
   -7.6320  -44.1870    7.2600 H   0  0  0  0  0  0  0  0  0  0  0  0
   -6.3960  -43.6720    5.5840 C   0  0  0  0  0  0  0  0  0  0  0  0
   -7.1850  -43.1480    5.0490 H   0  0  0  0  0  0  0  0  0  0  0  0
   -5.1100  -43.7610    4.9870 C   0  0  0  0  0  0  0  0  0  0  0  0
   -4.9400  -43.2940    4.0200 H   0  0  0  0  0  0  0  0  0  0  0  0
   -4.1020  -44.4420    5.6260 C   0  0  0  0  0  0  0  0  0  0  0  0
   -3.1240  -44.5590    5.1570 H   0  0  0  0  0  0  0  0  0  0  0  0
  1  2  1  0  0  0  0
  2  3  2  0  0  0  0
  4  2  1  0  0  0  0
  4  5  1  0  0  0  0
  6  7  1  0  0  0  0
  6  5  1  0  0  0  0
  7  8  1  0  0  0  0
  9 10  1  0  0  0  0
  9  7  2  0  0  0  0
 11  9  1  0  0  0  0
 12 11  1  0  0  0  0
 13 11  2  0  0  0  0
 13 15  1  0  0  0  0
 14 13  1  0  0  0  0
 15  6  2  0  0  0  0
 16 15  1  0  0  0  0
 16  4  2  0  0  0  0
 17 16  1  0  0  0  0
 17 20  1  0  0  0  0
 18 17  1  0  0  0  0
 19 17  1  0  0  0  0
 20 22  1  0  0  0  0
 20 23  1  0  0  0  0
 21 20  1  0  0  0  0
 23 25  1  0  0  0  0
 23 24  1  0  0  0  0
 26 23  1  0  0  0  0
 26 27  1  0  0  0  0
 27 34  1  0  0  0  0
 28 27  2  0  0  0  0
 28 29  1  0  0  0  0
 29 30  2  0  0  0  0
 30 32  1  0  0  0  0
 30 31  1  0  0  0  0
 32 33  1  0  0  0  0
 34 35  1  0  0  0  0
 34 32  2  0  0  0  0
 36 29  1  0  0  0  0
 36 37  1  0  0  0  0
 38 36  2  0  0  0  0
 39 38  1  0  0  0  0
 40 42  2  0  0  0  0
 40 38  1  0  0  0  0
 41 40  1  0  0  0  0
 42 28  1  0  0  0  0
 43 42  1  0  0  0  0
M  CHG  1   1  -1
M  END
$$$$
