p38a_2gg
 OpenBabel02232411163D
Structure written by MMmdl.
 48 51  0  0  0  0  0  0  0  0999 V2000
   36.3640   36.0190   15.8300 C   0  0  0  0  0  0  0  0  0  0  0  0
   34.5300   35.0470   21.3820 C   0  0  0  0  0  0  0  0  0  0  0  0
   35.6820   35.5550   16.9510 C   0  0  0  0  0  0  0  0  0  0  0  0
   34.1950   39.1570   23.9090 C   0  0  0  0  0  0  0  0  0  0  0  0
   34.7620   37.9100   21.5160 C   0  0  0  0  0  0  0  0  0  0  0  0
   35.1830   37.2260   20.3230 C   0  0  0  0  0  0  0  0  0  0  0  0
   37.6550   36.5180   16.0460 C   0  0  0  0  0  0  0  0  0  0  0  0
   38.2770   36.5290   17.2980 C   0  0  0  0  0  0  0  0  0  0  0  0
   37.5570   36.0920   18.4160 C   0  0  0  0  0  0  0  0  0  0  0  0
   34.3640   37.1670   22.6670 C   0  0  0  0  0  0  0  0  0  0  0  0
   34.7410   39.3250   21.6320 C   0  0  0  0  0  0  0  0  0  0  0  0
   35.1080   35.8760   20.2880 C   0  0  0  0  0  0  0  0  0  0  0  0
   36.2580   35.6070   18.2370 C   0  0  0  0  0  0  0  0  0  0  0  0
   33.8360   35.0170   23.8130 C   0  0  0  0  0  0  0  0  0  0  0  0
   34.4670   35.0360   16.8340 F   0  0  0  0  0  0  0  0  0  0  0  0
   35.5000   35.0220   19.2600 O   0  0  0  0  0  0  0  0  0  0  0  0
   34.4570   39.9590   22.7800 N   0  0  0  0  0  0  0  0  0  0  0  0
   34.2910   33.8620   21.3140 O   0  0  0  0  0  0  0  0  0  0  0  0
   34.2420   35.7710   22.5930 N   0  0  0  0  0  0  0  0  0  0  0  0
   34.0790   37.7860   23.8620 N   0  0  0  0  0  0  0  0  0  0  0  0
   34.1210   39.8330   25.1120 N   0  0  0  0  0  0  0  0  0  0  0  0
   35.9080   36.0200   14.8370 H   0  0  0  0  0  0  0  0  0  0  0  0
   35.5670   37.8270   19.4950 H   0  0  0  0  0  0  0  0  0  0  0  0
   39.2980   36.9030   17.4120 H   0  0  0  0  0  0  0  0  0  0  0  0
   38.0060   36.1560   19.4090 H   0  0  0  0  0  0  0  0  0  0  0  0
   34.9560   39.9530   20.7520 H   0  0  0  0  0  0  0  0  0  0  0  0
   34.6220   35.1340   24.6060 H   0  0  0  0  0  0  0  0  0  0  0  0
   32.8670   35.4260   24.2080 H   0  0  0  0  0  0  0  0  0  0  0  0
   33.7090   33.9290   23.5730 H   0  0  0  0  0  0  0  0  0  0  0  0
   34.0020   40.8670   25.0850 H   0  0  0  0  0  0  0  0  0  0  0  0
   38.3050   37.0390   15.0080 F   0  0  0  0  0  0  0  0  0  0  0  0
   34.3870   37.6640   28.2770 C   0  0  0  0  0  0  0  0  0  0  0  0
   34.5800   38.0240   26.8040 C   0  0  0  0  0  0  0  0  0  0  0  0
   33.7360   39.2620   26.4340 C   0  0  0  0  0  0  0  0  0  0  0  0
   32.2180   38.9680   26.5190 C   0  0  0  0  0  0  0  0  0  0  0  0
   31.8070   38.7060   27.9690 C   0  0  0  0  0  0  0  0  0  0  0  0
   34.7880   38.5050   28.9080 H   0  0  0  0  0  0  0  0  0  0  0  0
   35.0150   36.7650   28.5130 H   0  0  0  0  0  0  0  0  0  0  0  0
   34.3090   37.1560   26.1520 H   0  0  0  0  0  0  0  0  0  0  0  0
   35.6580   38.2670   26.6240 H   0  0  0  0  0  0  0  0  0  0  0  0
   33.9790   40.0920   27.1660 H   0  0  0  0  0  0  0  0  0  0  0  0
   31.6610   39.8620   26.1380 H   0  0  0  0  0  0  0  0  0  0  0  0
   31.9590   38.1000   25.8640 H   0  0  0  0  0  0  0  0  0  0  0  0
   31.9950   39.6400   28.5670 H   0  0  0  0  0  0  0  0  0  0  0  0
   30.7040   38.5160   28.0060 H   0  0  0  0  0  0  0  0  0  0  0  0
   32.7030   37.3630   28.6750 S   0  0  0  0  0  0  0  0  0  0  0  0
   32.2460   36.0690   28.1200 O   0  0  0  0  0  0  0  0  0  0  0  0
   32.5340   37.3630   30.1550 O   0  0  0  0  0  0  0  0  0  0  0  0
  1  3  2  0  0  0  0
  1  7  1  0  0  0  0
  1 22  1  0  0  0  0
  2 12  1  0  0  0  0
  2 18  2  0  0  0  0
  2 19  1  0  0  0  0
  3 13  1  0  0  0  0
  3 15  1  0  0  0  0
  4 17  2  0  0  0  0
  4 20  1  0  0  0  0
  4 21  1  0  0  0  0
  5  6  1  0  0  0  0
  5 10  1  0  0  0  0
  5 11  2  0  0  0  0
  6 12  2  0  0  0  0
  6 23  1  0  0  0  0
  7  8  2  0  0  0  0
  7 31  1  0  0  0  0
  8  9  1  0  0  0  0
  8 24  1  0  0  0  0
  9 13  2  0  0  0  0
  9 25  1  0  0  0  0
 10 19  1  0  0  0  0
 10 20  2  0  0  0  0
 11 17  1  0  0  0  0
 11 26  1  0  0  0  0
 12 16  1  0  0  0  0
 13 16  1  0  0  0  0
 14 19  1  0  0  0  0
 14 27  1  0  0  0  0
 14 28  1  0  0  0  0
 14 29  1  0  0  0  0
 21 30  1  0  0  0  0
 21 34  1  0  0  0  0
 32 33  1  0  0  0  0
 32 37  1  0  0  0  0
 32 38  1  0  0  0  0
 32 46  1  0  0  0  0
 33 34  1  0  0  0  0
 33 39  1  0  0  0  0
 33 40  1  0  0  0  0
 34 35  1  0  0  0  0
 34 41  1  0  0  0  0
 35 36  1  0  0  0  0
 35 42  1  0  0  0  0
 35 43  1  0  0  0  0
 36 44  1  0  0  0  0
 36 45  1  0  0  0  0
 36 46  1  0  0  0  0
 46 47  2  0  0  0  0
 46 48  2  0  0  0  0
M  END
$$$$
