p38a_2r
 OpenBabel02232411163D
Structure written by MMmdl.
 56 59  0  0  0  0  0  0  0  0999 V2000
   36.3030   35.8270   16.1380 C   0  0  0  0  0  0  0  0  0  0  0  0
   34.2170   35.0250   21.6450 C   0  0  0  0  0  0  0  0  0  0  0  0
   35.5490   35.4410   17.2410 C   0  0  0  0  0  0  0  0  0  0  0  0
   33.8090   39.1510   24.1420 C   0  0  0  0  0  0  0  0  0  0  0  0
   34.6190   37.8700   21.8380 C   0  0  0  0  0  0  0  0  0  0  0  0
   35.0720   37.1750   20.6650 C   0  0  0  0  0  0  0  0  0  0  0  0
   37.5990   36.2910   16.3990 C   0  0  0  0  0  0  0  0  0  0  0  0
   38.1560   36.3370   17.6800 C   0  0  0  0  0  0  0  0  0  0  0  0
   37.3720   35.9590   18.7750 C   0  0  0  0  0  0  0  0  0  0  0  0
   34.0120   37.1530   22.9130 C   0  0  0  0  0  0  0  0  0  0  0  0
   34.7460   39.2780   21.9950 C   0  0  0  0  0  0  0  0  0  0  0  0
   34.8930   35.8360   20.5950 C   0  0  0  0  0  0  0  0  0  0  0  0
   36.0660   35.5130   18.5530 C   0  0  0  0  0  0  0  0  0  0  0  0
   34.3190   34.9680   17.0830 F   0  0  0  0  0  0  0  0  0  0  0  0
   35.2370   34.9820   19.5460 O   0  0  0  0  0  0  0  0  0  0  0  0
   34.3750   39.9290   23.1070 N   0  0  0  0  0  0  0  0  0  0  0  0
   33.9630   33.8440   21.5500 O   0  0  0  0  0  0  0  0  0  0  0  0
   33.8350   35.7570   22.8250 N   0  0  0  0  0  0  0  0  0  0  0  0
   33.5600   37.7970   24.0320 N   0  0  0  0  0  0  0  0  0  0  0  0
   33.4760   39.7840   25.3110 N   0  0  0  0  0  0  0  0  0  0  0  0
   35.9010   35.7990   15.1200 H   0  0  0  0  0  0  0  0  0  0  0  0
   35.5460   37.7570   19.8690 H   0  0  0  0  0  0  0  0  0  0  0  0
   39.1810   36.6920   17.8240 H   0  0  0  0  0  0  0  0  0  0  0  0
   37.7780   36.0300   19.7850 H   0  0  0  0  0  0  0  0  0  0  0  0
   35.1700   39.8820   21.1750 H   0  0  0  0  0  0  0  0  0  0  0  0
   33.6600   40.8000   25.4150 H   0  0  0  0  0  0  0  0  0  0  0  0
   38.3220   36.7380   15.3750 F   0  0  0  0  0  0  0  0  0  0  0  0
   33.6120   40.7070   28.3110 C   0  0  0  0  0  0  0  0  0  0  0  0
   32.4310   40.1270   27.5190 C   0  0  0  0  0  0  0  0  0  0  0  0
   32.8710   39.0700   26.4860 C   0  0  0  0  0  0  0  0  0  0  0  0
   33.8280   38.0590   27.1440 C   0  0  0  0  0  0  0  0  0  0  0  0
   34.9570   38.7430   27.9100 C   0  0  0  0  0  0  0  0  0  0  0  0
   34.4420   39.6800   28.8890 O   0  0  0  0  0  0  0  0  0  0  0  0
   33.2540   41.2680   29.2050 H   0  0  0  0  0  0  0  0  0  0  0  0
   34.2440   41.3510   27.6570 H   0  0  0  0  0  0  0  0  0  0  0  0
   31.9060   40.9600   26.9980 H   0  0  0  0  0  0  0  0  0  0  0  0
   31.7080   39.6430   28.2200 H   0  0  0  0  0  0  0  0  0  0  0  0
   31.9600   38.5190   26.1120 H   0  0  0  0  0  0  0  0  0  0  0  0
   33.2210   37.4280   27.8410 H   0  0  0  0  0  0  0  0  0  0  0  0
   34.2590   37.3560   26.3750 H   0  0  0  0  0  0  0  0  0  0  0  0
   35.5040   38.0200   28.5560 H   0  0  0  0  0  0  0  0  0  0  0  0
   35.6400   39.2900   27.2230 H   0  0  0  0  0  0  0  0  0  0  0  0
   33.2710   35.0080   23.9870 C   0  0  0  0  0  0  0  0  0  0  0  0
   32.5780   35.6890   24.5650 H   0  0  0  0  0  0  0  0  0  0  0  0
   32.6680   34.1430   23.5910 H   0  0  0  0  0  0  0  0  0  0  0  0
   34.3300   34.4450   24.9840 C   0  0  0  0  0  0  0  0  0  0  0  0
   34.9620   35.6050   25.5810 O   0  0  0  0  0  0  0  0  0  0  0  0
   35.5070   35.3160   26.3630 H   0  0  0  0  0  0  0  0  0  0  0  0
   35.4280   33.6160   24.3130 C   0  0  0  0  0  0  0  0  0  0  0  0
   35.9790   34.2560   23.5980 H   0  0  0  0  0  0  0  0  0  0  0  0
   36.1490   33.2560   25.0790 H   0  0  0  0  0  0  0  0  0  0  0  0
   34.9920   32.7430   23.7870 H   0  0  0  0  0  0  0  0  0  0  0  0
   33.6060   33.6460   26.0790 C   0  0  0  0  0  0  0  0  0  0  0  0
   34.3090   33.3940   26.9040 H   0  0  0  0  0  0  0  0  0  0  0  0
   32.7690   34.2390   26.5180 H   0  0  0  0  0  0  0  0  0  0  0  0
   33.1890   32.6970   25.6750 H   0  0  0  0  0  0  0  0  0  0  0  0
  1  3  2  0  0  0  0
  1  7  1  0  0  0  0
  1 21  1  0  0  0  0
  2 12  1  0  0  0  0
  2 17  2  0  0  0  0
  2 18  1  0  0  0  0
  3 13  1  0  0  0  0
  3 14  1  0  0  0  0
  4 16  2  0  0  0  0
  4 19  1  0  0  0  0
  4 20  1  0  0  0  0
  5  6  1  0  0  0  0
  5 10  1  0  0  0  0
  5 11  2  0  0  0  0
  6 12  2  0  0  0  0
  6 22  1  0  0  0  0
  7  8  2  0  0  0  0
  7 27  1  0  0  0  0
  8  9  1  0  0  0  0
  8 23  1  0  0  0  0
  9 13  2  0  0  0  0
  9 24  1  0  0  0  0
 10 18  1  0  0  0  0
 10 19  2  0  0  0  0
 11 16  1  0  0  0  0
 11 25  1  0  0  0  0
 12 15  1  0  0  0  0
 13 15  1  0  0  0  0
 18 43  1  0  0  0  0
 20 26  1  0  0  0  0
 20 30  1  0  0  0  0
 28 29  1  0  0  0  0
 28 33  1  0  0  0  0
 28 34  1  0  0  0  0
 28 35  1  0  0  0  0
 29 30  1  0  0  0  0
 29 36  1  0  0  0  0
 29 37  1  0  0  0  0
 30 31  1  0  0  0  0
 30 38  1  0  0  0  0
 31 32  1  0  0  0  0
 31 39  1  0  0  0  0
 31 40  1  0  0  0  0
 32 33  1  0  0  0  0
 32 41  1  0  0  0  0
 32 42  1  0  0  0  0
 43 44  1  0  0  0  0
 43 45  1  0  0  0  0
 43 46  1  0  0  0  0
 46 47  1  0  0  0  0
 46 49  1  0  0  0  0
 46 53  1  0  0  0  0
 47 48  1  0  0  0  0
 49 50  1  0  0  0  0
 49 51  1  0  0  0  0
 49 52  1  0  0  0  0
 53 54  1  0  0  0  0
 53 55  1  0  0  0  0
 53 56  1  0  0  0  0
M  END
$$$$
