p38a_2aa
 OpenBabel02232411163D
Structure written by MMmdl.
 43 45  0  0  0  0  0  0  0  0999 V2000
   38.2980   36.5580   17.1150 C   0  0  0  0  0  0  0  0  0  0  0  0
   34.5320   35.0350   21.1190 C   0  0  0  0  0  0  0  0  0  0  0  0
   37.5020   36.0860   18.1550 C   0  0  0  0  0  0  0  0  0  0  0  0
   33.8720   39.0750   23.6910 C   0  0  0  0  0  0  0  0  0  0  0  0
   33.2140   38.8830   26.0920 C   0  0  0  0  0  0  0  0  0  0  0  0
   34.6020   37.9160   21.3040 C   0  0  0  0  0  0  0  0  0  0  0  0
   35.0180   37.2750   20.0860 C   0  0  0  0  0  0  0  0  0  0  0  0
   37.6640   36.7340   15.8770 C   0  0  0  0  0  0  0  0  0  0  0  0
   36.3180   36.4390   15.6500 C   0  0  0  0  0  0  0  0  0  0  0  0
   35.5440   35.9490   16.7060 C   0  0  0  0  0  0  0  0  0  0  0  0
   34.2110   37.1240   22.4240 C   0  0  0  0  0  0  0  0  0  0  0  0
   34.5830   39.3270   21.4740 C   0  0  0  0  0  0  0  0  0  0  0  0
   35.0110   35.9230   20.0270 C   0  0  0  0  0  0  0  0  0  0  0  0
   36.1430   35.7640   17.9550 C   0  0  0  0  0  0  0  0  0  0  0  0
   33.7590   34.9340   23.5220 C   0  0  0  0  0  0  0  0  0  0  0  0
   38.0160   35.9390   19.3690 F   0  0  0  0  0  0  0  0  0  0  0  0
   35.4120   35.1190   18.9620 O   0  0  0  0  0  0  0  0  0  0  0  0
   34.2460   39.9190   22.6320 N   0  0  0  0  0  0  0  0  0  0  0  0
   34.4280   33.8290   21.0530 O   0  0  0  0  0  0  0  0  0  0  0  0
   34.1800   35.7240   22.3310 N   0  0  0  0  0  0  0  0  0  0  0  0
   33.8640   37.7000   23.6210 N   0  0  0  0  0  0  0  0  0  0  0  0
   33.3970   39.6810   24.8470 N   0  0  0  0  0  0  0  0  0  0  0  0
   39.3500   36.8160   17.2660 H   0  0  0  0  0  0  0  0  0  0  0  0
   34.5570   38.4740   26.7520 C   0  0  0  0  0  0  0  0  0  0  0  0
   35.3360   37.9050   19.2530 H   0  0  0  0  0  0  0  0  0  0  0  0
   35.8590   36.6000   14.6730 H   0  0  0  0  0  0  0  0  0  0  0  0
   34.4820   35.7300   16.5500 H   0  0  0  0  0  0  0  0  0  0  0  0
   34.8520   39.9850   20.6320 H   0  0  0  0  0  0  0  0  0  0  0  0
   34.4280   35.1660   24.3950 H   0  0  0  0  0  0  0  0  0  0  0  0
   32.7050   35.2010   23.8070 H   0  0  0  0  0  0  0  0  0  0  0  0
   33.8110   33.8370   23.3000 H   0  0  0  0  0  0  0  0  0  0  0  0
   33.6440   40.6760   25.0070 H   0  0  0  0  0  0  0  0  0  0  0  0
   38.3730   37.2490   14.8760 F   0  0  0  0  0  0  0  0  0  0  0  0
   32.3250   39.6980   27.0650 C   0  0  0  0  0  0  0  0  0  0  0  0
   33.0280   40.8260   27.6240 O   0  0  0  0  0  0  0  0  0  0  0  0
   33.1350   41.5180   26.8930 H   0  0  0  0  0  0  0  0  0  0  0  0
   31.4070   40.0600   26.5500 H   0  0  0  0  0  0  0  0  0  0  0  0
   32.0750   39.0810   27.9620 H   0  0  0  0  0  0  0  0  0  0  0  0
   35.3930   39.6050   27.0090 O   0  0  0  0  0  0  0  0  0  0  0  0
   34.3480   37.9440   27.7130 H   0  0  0  0  0  0  0  0  0  0  0  0
   35.1670   37.8380   26.0700 H   0  0  0  0  0  0  0  0  0  0  0  0
   34.8350   40.2910   27.4790 H   0  0  0  0  0  0  0  0  0  0  0  0
   32.6470   37.9340   25.8380 H   0  0  0  0  0  0  0  0  0  0  0  0
  1  3  2  0  0  0  0
  1  8  1  0  0  0  0
  1 23  1  0  0  0  0
  2 13  1  0  0  0  0
  2 19  2  0  0  0  0
  2 20  1  0  0  0  0
  3 14  1  0  0  0  0
  3 16  1  0  0  0  0
  4 18  2  0  0  0  0
  4 21  1  0  0  0  0
  4 22  1  0  0  0  0
  5 22  1  0  0  0  0
  5 24  1  0  0  0  0
  5 34  1  0  0  0  0
  5 43  1  0  0  0  0
  6  7  1  0  0  0  0
  6 11  1  0  0  0  0
  6 12  2  0  0  0  0
  7 13  2  0  0  0  0
  7 25  1  0  0  0  0
  8  9  2  0  0  0  0
  8 33  1  0  0  0  0
  9 10  1  0  0  0  0
  9 26  1  0  0  0  0
 10 14  2  0  0  0  0
 10 27  1  0  0  0  0
 11 20  1  0  0  0  0
 11 21  2  0  0  0  0
 12 18  1  0  0  0  0
 12 28  1  0  0  0  0
 13 17  1  0  0  0  0
 14 17  1  0  0  0  0
 15 20  1  0  0  0  0
 15 29  1  0  0  0  0
 15 30  1  0  0  0  0
 15 31  1  0  0  0  0
 22 32  1  0  0  0  0
 24 39  1  0  0  0  0
 24 40  1  0  0  0  0
 24 41  1  0  0  0  0
 34 35  1  0  0  0  0
 34 37  1  0  0  0  0
 34 38  1  0  0  0  0
 35 36  1  0  0  0  0
 39 42  1  0  0  0  0
M  END
$$$$
