p38a_2p
 OpenBabel02232411163D
Structure written by MMmdl.
 58 61  0  0  0  0  0  0  0  0999 V2000
   36.3750   35.9240   15.8680 C   0  0  0  0  0  0  0  0  0  0  0  0
   34.3100   34.7810   21.3170 C   0  0  0  0  0  0  0  0  0  0  0  0
   35.6340   35.4310   16.9380 C   0  0  0  0  0  0  0  0  0  0  0  0
   33.7830   38.8600   23.8770 C   0  0  0  0  0  0  0  0  0  0  0  0
   34.5450   37.6500   21.5230 C   0  0  0  0  0  0  0  0  0  0  0  0
   35.0030   36.9880   20.3320 C   0  0  0  0  0  0  0  0  0  0  0  0
   37.6530   36.4120   16.1650 C   0  0  0  0  0  0  0  0  0  0  0  0
   38.2080   36.3930   17.4490 C   0  0  0  0  0  0  0  0  0  0  0  0
   37.4310   35.9250   18.5130 C   0  0  0  0  0  0  0  0  0  0  0  0
   34.0380   36.8840   22.6150 C   0  0  0  0  0  0  0  0  0  0  0  0
   34.6020   39.0600   21.6910 C   0  0  0  0  0  0  0  0  0  0  0  0
   34.9200   35.6400   20.2640 C   0  0  0  0  0  0  0  0  0  0  0  0
   36.1440   35.4410   18.2520 C   0  0  0  0  0  0  0  0  0  0  0  0
   34.4260   34.9210   16.7430 F   0  0  0  0  0  0  0  0  0  0  0  0
   35.3400   34.8200   19.2180 O   0  0  0  0  0  0  0  0  0  0  0  0
   34.2340   39.6790   22.8230 N   0  0  0  0  0  0  0  0  0  0  0  0
   34.1610   33.5820   21.2380 O   0  0  0  0  0  0  0  0  0  0  0  0
   33.8890   35.4880   22.5020 N   0  0  0  0  0  0  0  0  0  0  0  0
   33.6910   37.4850   23.7980 N   0  0  0  0  0  0  0  0  0  0  0  0
   33.3500   39.4830   25.0270 N   0  0  0  0  0  0  0  0  0  0  0  0
   35.9710   35.9560   14.8530 H   0  0  0  0  0  0  0  0  0  0  0  0
   35.4220   37.6050   19.5320 H   0  0  0  0  0  0  0  0  0  0  0  0
   39.2200   36.7690   17.6230 H   0  0  0  0  0  0  0  0  0  0  0  0
   37.8220   35.9640   19.5330 H   0  0  0  0  0  0  0  0  0  0  0  0
   34.9650   39.7010   20.8670 H   0  0  0  0  0  0  0  0  0  0  0  0
   33.5140   40.5020   25.1460 H   0  0  0  0  0  0  0  0  0  0  0  0
   38.3590   36.9570   15.1760 F   0  0  0  0  0  0  0  0  0  0  0  0
   31.7490   38.7470   28.4140 C   0  0  0  0  0  0  0  0  0  0  0  0
   31.9570   39.4340   27.0590 C   0  0  0  0  0  0  0  0  0  0  0  0
   33.0830   38.7170   26.2830 C   0  0  0  0  0  0  0  0  0  0  0  0
   34.3640   38.6270   27.1430 C   0  0  0  0  0  0  0  0  0  0  0  0
   34.0370   37.9980   28.5030 C   0  0  0  0  0  0  0  0  0  0  0  0
   32.9750   38.7100   29.1800 O   0  0  0  0  0  0  0  0  0  0  0  0
   31.3730   37.7060   28.2760 H   0  0  0  0  0  0  0  0  0  0  0  0
   31.0730   39.3370   29.0730 H   0  0  0  0  0  0  0  0  0  0  0  0
   32.2290   40.5050   27.2120 H   0  0  0  0  0  0  0  0  0  0  0  0
   31.0130   39.3850   26.4660 H   0  0  0  0  0  0  0  0  0  0  0  0
   32.7390   37.6780   26.0140 H   0  0  0  0  0  0  0  0  0  0  0  0
   35.1210   37.9910   26.6220 H   0  0  0  0  0  0  0  0  0  0  0  0
   34.7990   39.6450   27.2860 H   0  0  0  0  0  0  0  0  0  0  0  0
   33.7370   36.9300   28.3820 H   0  0  0  0  0  0  0  0  0  0  0  0
   34.8890   38.1040   29.2130 H   0  0  0  0  0  0  0  0  0  0  0  0
   33.3310   34.7100   23.6620 C   0  0  0  0  0  0  0  0  0  0  0  0
   33.4800   33.6180   23.4570 H   0  0  0  0  0  0  0  0  0  0  0  0
   33.9220   34.9900   24.5820 H   0  0  0  0  0  0  0  0  0  0  0  0
   31.8440   35.0140   23.9410 C   0  0  0  0  0  0  0  0  0  0  0  0
   31.7140   35.1040   25.0520 H   0  0  0  0  0  0  0  0  0  0  0  0
   31.6000   36.0360   23.5380 H   0  0  0  0  0  0  0  0  0  0  0  0
   30.8230   34.0370   23.3520 C   0  0  0  0  0  0  0  0  0  0  0  0
   31.1440   33.7820   22.3070 H   0  0  0  0  0  0  0  0  0  0  0  0
   29.8710   34.6310   23.2390 H   0  0  0  0  0  0  0  0  0  0  0  0
   30.4570   32.5700   24.2540 S   0  0  0  0  0  0  0  0  0  0  0  0
   31.1690   31.4260   23.6440 O   0  0  0  0  0  0  0  0  0  0  0  0
   28.9870   32.3400   24.2550 O   0  0  0  0  0  0  0  0  0  0  0  0
   30.9730   32.7640   25.8980 C   0  0  0  0  0  0  0  0  0  0  0  0
   30.4840   33.6390   26.4070 H   0  0  0  0  0  0  0  0  0  0  0  0
   30.7320   31.8710   26.5320 H   0  0  0  0  0  0  0  0  0  0  0  0
   32.0790   32.9290   26.0030 H   0  0  0  0  0  0  0  0  0  0  0  0
  1  3  2  0  0  0  0
  1  7  1  0  0  0  0
  1 21  1  0  0  0  0
  2 12  1  0  0  0  0
  2 17  2  0  0  0  0
  2 18  1  0  0  0  0
  3 13  1  0  0  0  0
  3 14  1  0  0  0  0
  4 16  2  0  0  0  0
  4 19  1  0  0  0  0
  4 20  1  0  0  0  0
  5  6  1  0  0  0  0
  5 10  1  0  0  0  0
  5 11  2  0  0  0  0
  6 12  2  0  0  0  0
  6 22  1  0  0  0  0
  7  8  2  0  0  0  0
  7 27  1  0  0  0  0
  8  9  1  0  0  0  0
  8 23  1  0  0  0  0
  9 13  2  0  0  0  0
  9 24  1  0  0  0  0
 10 18  1  0  0  0  0
 10 19  2  0  0  0  0
 11 16  1  0  0  0  0
 11 25  1  0  0  0  0
 12 15  1  0  0  0  0
 13 15  1  0  0  0  0
 18 43  1  0  0  0  0
 20 26  1  0  0  0  0
 20 30  1  0  0  0  0
 28 29  1  0  0  0  0
 28 33  1  0  0  0  0
 28 34  1  0  0  0  0
 28 35  1  0  0  0  0
 29 30  1  0  0  0  0
 29 36  1  0  0  0  0
 29 37  1  0  0  0  0
 30 31  1  0  0  0  0
 30 38  1  0  0  0  0
 31 32  1  0  0  0  0
 31 39  1  0  0  0  0
 31 40  1  0  0  0  0
 32 33  1  0  0  0  0
 32 41  1  0  0  0  0
 32 42  1  0  0  0  0
 43 44  1  0  0  0  0
 43 45  1  0  0  0  0
 43 46  1  0  0  0  0
 46 47  1  0  0  0  0
 46 48  1  0  0  0  0
 46 49  1  0  0  0  0
 49 50  1  0  0  0  0
 49 51  1  0  0  0  0
 49 52  1  0  0  0  0
 52 53  2  0  0  0  0
 52 54  2  0  0  0  0
 52 55  1  0  0  0  0
 55 56  1  0  0  0  0
 55 57  1  0  0  0  0
 55 58  1  0  0  0  0
M  END
$$$$
