23474
 OpenBabel02232411173D
Structure written by MMmdl.
 48 50  0  0  0  0  0  0  0  0999 V2000
   40.7180   18.2940   12.9090 O   0  0  0  0  0  0  0  0  0  0  0  0
   41.6930   17.5140   12.8510 C   0  0  0  0  0  0  0  0  0  0  0  0
   42.8290   17.8040   12.4550 O   0  5  0  0  0  0  0  0  0  0  0  0
   41.4110   16.0360   13.2700 C   0  0  0  0  0  0  0  0  0  0  0  0
   42.7490   15.5280   13.5840 O   0  0  0  0  0  0  0  0  0  0  0  0
   42.8360   14.8060   14.7300 C   0  0  0  0  0  0  0  0  0  0  0  0
   42.2090   13.5190   14.9400 C   0  0  0  0  0  0  0  0  0  0  0  0
   40.9320   12.8060   13.7140 Br  0  0  0  0  0  0  0  0  0  0  0  0
   42.5980   12.8760   16.0840 C   0  0  0  0  0  0  0  0  0  0  0  0
   42.1740   11.5920   16.6060 C   0  0  0  0  0  0  0  0  0  0  0  0
   43.0910   10.6820   17.1810 C   0  0  0  0  0  0  0  0  0  0  0  0
   42.6440    9.4410   17.6210 C   0  0  0  0  0  0  0  0  0  0  0  0
   41.3030    9.0520   17.4850 C   0  0  0  0  0  0  0  0  0  0  0  0
   40.3870    9.9450   16.9160 C   0  0  0  0  0  0  0  0  0  0  0  0
   38.9750    9.7250   16.7660 N   0  0  0  0  0  0  0  0  0  0  0  0
   38.3760    8.4120   17.1090 C   0  0  0  0  0  0  0  0  0  0  0  0
   38.1670    7.4080   15.9420 C   0  0  0  0  0  0  0  0  0  0  0  0
   39.4930    6.9330   15.3200 C   0  0  0  0  0  0  0  0  0  0  0  0
   39.2420    5.8970   14.2110 C   0  0  0  0  0  0  0  0  0  0  0  0
   38.2960    6.4460   13.1320 C   0  0  0  0  0  0  0  0  0  0  0  0
   36.9750    6.9410   13.7420 C   0  0  0  0  0  0  0  0  0  0  0  0
   37.2250    7.9730   14.8550 C   0  0  0  0  0  0  0  0  0  0  0  0
   40.8260   11.2290   16.5130 C   0  0  0  0  0  0  0  0  0  0  0  0
   43.7640   13.8780   16.9160 S   0  0  0  0  0  0  0  0  0  0  0  0
   43.6680   15.1740   15.7560 C   0  0  0  0  0  0  0  0  0  0  0  0
   44.4420   16.4720   15.9760 C   0  0  0  0  0  0  0  0  0  0  0  0
   43.9350   17.5360   15.6260 O   0  0  0  0  0  0  0  0  0  0  0  0
   45.5720   16.3290   16.4920 O   0  5  0  0  0  0  0  0  0  0  0  0
   41.0450   15.4250   12.4190 H   0  0  0  0  0  0  0  0  0  0  0  0
   40.7150   15.9520   14.1310 H   0  0  0  0  0  0  0  0  0  0  0  0
   44.1490   10.9290   17.2790 H   0  0  0  0  0  0  0  0  0  0  0  0
   43.3430    8.7350   18.0770 H   0  0  0  0  0  0  0  0  0  0  0  0
   41.0120    8.0580   17.8180 H   0  0  0  0  0  0  0  0  0  0  0  0
   38.6450   10.0330   15.8340 H   0  0  0  0  0  0  0  0  0  0  0  0
   37.3590    8.6420   17.5380 H   0  0  0  0  0  0  0  0  0  0  0  0
   38.9630    7.8990   17.9140 H   0  0  0  0  0  0  0  0  0  0  0  0
   37.6630    6.5130   16.3950 H   0  0  0  0  0  0  0  0  0  0  0  0
   40.0490    7.7980   14.8920 H   0  0  0  0  0  0  0  0  0  0  0  0
   40.1290    6.4650   16.1070 H   0  0  0  0  0  0  0  0  0  0  0  0
   40.2150    5.6250   13.7390 H   0  0  0  0  0  0  0  0  0  0  0  0
   38.8050    4.9730   14.6570 H   0  0  0  0  0  0  0  0  0  0  0  0
   38.8090    7.2950   12.6240 H   0  0  0  0  0  0  0  0  0  0  0  0
   38.0850    5.6470   12.3870 H   0  0  0  0  0  0  0  0  0  0  0  0
   36.3480    7.4050   12.9480 H   0  0  0  0  0  0  0  0  0  0  0  0
   36.4140    6.0720   14.1620 H   0  0  0  0  0  0  0  0  0  0  0  0
   36.2520    8.2450   15.3220 H   0  0  0  0  0  0  0  0  0  0  0  0
   37.6700    8.8870   14.3960 H   0  0  0  0  0  0  0  0  0  0  0  0
   40.0790   11.9330   16.1360 H   0  0  0  0  0  0  0  0  0  0  0  0
  1  2  2  0  0  0  0
  2  3  1  0  0  0  0
  2  4  1  0  0  0  0
  4  5  1  0  0  0  0
  4 29  1  0  0  0  0
  4 30  1  0  0  0  0
  5  6  1  0  0  0  0
  6 25  2  0  0  0  0
  6  7  1  0  0  0  0
  7  8  1  0  0  0  0
  7  9  2  0  0  0  0
  9 10  1  0  0  0  0
  9 24  1  0  0  0  0
 10 23  2  0  0  0  0
 10 11  1  0  0  0  0
 11 12  2  0  0  0  0
 11 31  1  0  0  0  0
 12 13  1  0  0  0  0
 12 32  1  0  0  0  0
 13 14  2  0  0  0  0
 13 33  1  0  0  0  0
 14 15  1  0  0  0  0
 14 23  1  0  0  0  0
 15 16  1  0  0  0  0
 15 34  1  0  0  0  0
 16 17  1  0  0  0  0
 16 35  1  0  0  0  0
 16 36  1  0  0  0  0
 17 22  1  0  0  0  0
 17 18  1  0  0  0  0
 17 37  1  0  0  0  0
 18 19  1  0  0  0  0
 18 38  1  0  0  0  0
 18 39  1  0  0  0  0
 19 20  1  0  0  0  0
 19 40  1  0  0  0  0
 19 41  1  0  0  0  0
 20 21  1  0  0  0  0
 20 42  1  0  0  0  0
 20 43  1  0  0  0  0
 21 22  1  0  0  0  0
 21 44  1  0  0  0  0
 21 45  1  0  0  0  0
 22 46  1  0  0  0  0
 22 47  1  0  0  0  0
 23 48  1  0  0  0  0
 24 25  1  0  0  0  0
 25 26  1  0  0  0  0
 26 27  2  0  0  0  0
 26 28  1  0  0  0  0
M  CHG  2   3  -1  28  -1
M  END
$$$$
