47
 OpenBabel02232411163D
Structure written by MMmdl.
 43 46  0  0  0  0  0  0  0  0999 V2000
    4.2180  -50.0760    6.1530 O   0  0  0  0  0  0  0  0  0  0  0  0
    3.3990  -49.3060    6.6910 C   0  0  0  0  0  0  0  0  0  0  0  0
    3.6450  -48.3160    7.3880 O   0  5  0  0  0  0  0  0  0  0  0  0
    1.9210  -49.6770    6.4580 C   0  0  0  0  0  0  0  0  0  0  0  0
    0.1100  -51.0730    6.4980 C   0  0  0  0  0  0  0  0  0  0  0  0
   -0.8040  -52.1110    6.7460 C   0  0  0  0  0  0  0  0  0  0  0  0
   -2.1120  -51.9260    6.3220 C   0  0  0  0  0  0  0  0  0  0  0  0
   -2.4960  -50.7550    5.6290 C   0  0  0  0  0  0  0  0  0  0  0  0
   -1.5870  -49.7430    5.3490 C   0  0  0  0  0  0  0  0  0  0  0  0
   -0.2710  -49.8530    5.8280 C   0  0  0  0  0  0  0  0  0  0  0  0
    0.8800  -48.9740    5.8590 C   0  0  0  0  0  0  0  0  0  0  0  0
    0.8680  -47.5510    5.4190 C   0  0  0  0  0  0  0  0  0  0  0  0
    0.2520  -46.6090    6.4800 C   0  0  0  0  0  0  0  0  0  0  0  0
   -1.2040  -46.9930    6.7200 C   0  0  0  0  0  0  0  0  0  0  0  0
   -1.7250  -46.1320    7.8020 O   0  0  0  0  0  0  0  0  0  0  0  0
   -3.0410  -45.7750    7.6600 C   0  0  0  0  0  0  0  0  0  0  0  0
   -5.2000  -45.7370    8.7670 C   0  0  0  0  0  0  0  0  0  0  0  0
   -3.8860  -46.1120    8.7730 C   0  0  0  0  0  0  0  0  0  0  0  0
   -0.5070  -53.0250    7.2610 H   0  0  0  0  0  0  0  0  0  0  0  0
   -2.8650  -52.6890    6.5230 H   0  0  0  0  0  0  0  0  0  0  0  0
   -3.5340  -50.6490    5.3110 H   0  0  0  0  0  0  0  0  0  0  0  0
   -1.9060  -48.8840    4.7600 H   0  0  0  0  0  0  0  0  0  0  0  0
    0.2580  -47.4580    4.4880 H   0  0  0  0  0  0  0  0  0  0  0  0
    1.9030  -47.1920    5.1970 H   0  0  0  0  0  0  0  0  0  0  0  0
    0.8170  -46.6810    7.4370 H   0  0  0  0  0  0  0  0  0  0  0  0
    0.3020  -45.5540    6.1220 H   0  0  0  0  0  0  0  0  0  0  0  0
   -1.3110  -48.0070    7.1710 H   0  0  0  0  0  0  0  0  0  0  0  0
   -1.8250  -46.8670    5.8090 H   0  0  0  0  0  0  0  0  0  0  0  0
   -3.4580  -46.6730    9.6090 H   0  0  0  0  0  0  0  0  0  0  0  0
   -3.5280  -45.1020    6.5580 C   0  0  0  0  0  0  0  0  0  0  0  0
   -5.8710  -45.9870    9.5960 H   0  0  0  0  0  0  0  0  0  0  0  0
   -4.8910  -44.7010    6.5380 C   0  0  0  0  0  0  0  0  0  0  0  0
   -5.7400  -45.0280    7.6370 C   0  0  0  0  0  0  0  0  0  0  0  0
   -7.0940  -44.7260    7.6330 N   0  0  0  0  0  0  0  0  0  0  0  0
   -7.6010  -44.1240    6.5590 C   0  0  0  0  0  0  0  0  0  0  0  0
   -6.8090  -43.7400    5.4280 C   0  0  0  0  0  0  0  0  0  0  0  0
   -5.4670  -44.0200    5.4200 C   0  0  0  0  0  0  0  0  0  0  0  0
   -8.6790  -43.9220    6.5440 H   0  0  0  0  0  0  0  0  0  0  0  0
   -7.2900  -43.2390    4.5980 H   0  0  0  0  0  0  0  0  0  0  0  0
   -4.8340  -43.7420    4.5730 H   0  0  0  0  0  0  0  0  0  0  0  0
   -2.9150  -44.8700    5.6900 H   0  0  0  0  0  0  0  0  0  0  0  0
    1.4630  -50.9470    6.8520 N   0  0  0  0  0  0  0  0  0  0  0  0
    1.9940  -51.6880    7.2970 H   0  0  0  0  0  0  0  0  0  0  0  0
  1  2  2  0  0  0  0
  2  3  1  0  0  0  0
  2  4  1  0  0  0  0
  4 11  2  0  0  0  0
  4 42  1  0  0  0  0
  5  6  2  0  0  0  0
  5 10  1  0  0  0  0
  5 42  1  0  0  0  0
  6  7  1  0  0  0  0
  6 19  1  0  0  0  0
  7  8  2  0  0  0  0
  7 20  1  0  0  0  0
  8  9  1  0  0  0  0
  8 21  1  0  0  0  0
  9 10  2  0  0  0  0
  9 22  1  0  0  0  0
 10 11  1  0  0  0  0
 11 12  1  0  0  0  0
 12 23  1  0  0  0  0
 12 24  1  0  0  0  0
 12 13  1  0  0  0  0
 13 14  1  0  0  0  0
 13 25  1  0  0  0  0
 13 26  1  0  0  0  0
 14 15  1  0  0  0  0
 14 27  1  0  0  0  0
 14 28  1  0  0  0  0
 15 16  1  0  0  0  0
 16 18  2  0  0  0  0
 16 30  1  0  0  0  0
 17 18  1  0  0  0  0
 17 31  1  0  0  0  0
 17 33  2  0  0  0  0
 18 29  1  0  0  0  0
 30 32  2  0  0  0  0
 30 41  1  0  0  0  0
 32 33  1  0  0  0  0
 32 37  1  0  0  0  0
 33 34  1  0  0  0  0
 34 35  2  0  0  0  0
 35 36  1  0  0  0  0
 35 38  1  0  0  0  0
 36 37  2  0  0  0  0
 36 39  1  0  0  0  0
 37 40  1  0  0  0  0
 42 43  1  0  0  0  0
M  CHG  1   3  -1
M  END
$$$$
