43
 OpenBabel02232411163D
Structure written by MMmdl.
 44 47  0  0  0  0  0  0  0  0999 V2000
    3.5830  -48.3200    7.3460 O   0  0  0  0  0  0  0  0  0  0  0  0
    3.3200  -49.3880    6.7810 C   0  0  0  0  0  0  0  0  0  0  0  0
    4.1280  -50.2540    6.3930 O   0  5  0  0  0  0  0  0  0  0  0  0
    1.8390  -49.7270    6.5190 C   0  0  0  0  0  0  0  0  0  0  0  0
   -0.0070  -51.0780    6.5270 C   0  0  0  0  0  0  0  0  0  0  0  0
   -0.9540  -52.0910    6.7560 C   0  0  0  0  0  0  0  0  0  0  0  0
   -2.2450  -51.8780    6.2950 C   0  0  0  0  0  0  0  0  0  0  0  0
   -2.5820  -50.7020    5.5850 C   0  0  0  0  0  0  0  0  0  0  0  0
   -1.6420  -49.7150    5.3250 C   0  0  0  0  0  0  0  0  0  0  0  0
   -0.3410  -49.8560    5.8360 C   0  0  0  0  0  0  0  0  0  0  0  0
    0.8320  -49.0070    5.8840 C   0  0  0  0  0  0  0  0  0  0  0  0
    0.8690  -47.5930    5.4190 C   0  0  0  0  0  0  0  0  0  0  0  0
    0.2800  -46.6120    6.4570 C   0  0  0  0  0  0  0  0  0  0  0  0
   -1.2110  -46.8780    6.6410 C   0  0  0  0  0  0  0  0  0  0  0  0
   -1.6370  -46.0610    7.7950 O   0  0  0  0  0  0  0  0  0  0  0  0
   -2.9990  -45.8730    7.8670 C   0  0  0  0  0  0  0  0  0  0  0  0
   -4.9640  -46.1340    9.2510 C   0  0  0  0  0  0  0  0  0  0  0  0
   -3.6250  -46.3460    9.0680 C   0  0  0  0  0  0  0  0  0  0  0  0
   -0.6940  -53.0080    7.2850 H   0  0  0  0  0  0  0  0  0  0  0  0
   -3.0200  -52.6230    6.4770 H   0  0  0  0  0  0  0  0  0  0  0  0
   -3.6090  -50.5740    5.2400 H   0  0  0  0  0  0  0  0  0  0  0  0
   -1.9260  -48.8470    4.7290 H   0  0  0  0  0  0  0  0  0  0  0  0
    0.2690  -47.4970    4.4810 H   0  0  0  0  0  0  0  0  0  0  0  0
    1.9180  -47.2760    5.1990 H   0  0  0  0  0  0  0  0  0  0  0  0
    0.7970  -46.7290    7.4380 H   0  0  0  0  0  0  0  0  0  0  0  0
    0.4250  -45.5640    6.1080 H   0  0  0  0  0  0  0  0  0  0  0  0
   -1.4230  -47.9170    6.9800 H   0  0  0  0  0  0  0  0  0  0  0  0
   -1.8030  -46.5920    5.7480 H   0  0  0  0  0  0  0  0  0  0  0  0
   -3.0250  -46.8550    9.8220 H   0  0  0  0  0  0  0  0  0  0  0  0
   -3.7160  -45.2310    6.8800 C   0  0  0  0  0  0  0  0  0  0  0  0
   -5.4740  -46.4860   10.1500 H   0  0  0  0  0  0  0  0  0  0  0  0
   -5.1170  -45.0270    7.0540 C   0  0  0  0  0  0  0  0  0  0  0  0
   -5.7470  -45.4840    8.2420 C   0  0  0  0  0  0  0  0  0  0  0  0
   -7.1630  -45.3660    8.3660 C   0  0  0  0  0  0  0  0  0  0  0  0
   -7.9160  -44.8940    7.3200 C   0  0  0  0  0  0  0  0  0  0  0  0
   -7.2830  -44.4130    6.1380 C   0  0  0  0  0  0  0  0  0  0  0  0
   -5.9170  -44.4500    6.0150 C   0  0  0  0  0  0  0  0  0  0  0  0
   -7.6340  -45.6860    9.2950 H   0  0  0  0  0  0  0  0  0  0  0  0
   -9.0030  -44.8980    7.3670 H   0  0  0  0  0  0  0  0  0  0  0  0
   -7.9080  -44.0290    5.3330 H   0  0  0  0  0  0  0  0  0  0  0  0
   -5.4290  -44.0710    5.1150 H   0  0  0  0  0  0  0  0  0  0  0  0
   -3.2610  -44.8840    5.9560 H   0  0  0  0  0  0  0  0  0  0  0  0
    1.3380  -50.9810    6.9150 N   0  0  0  0  0  0  0  0  0  0  0  0
    1.8390  -51.7310    7.3810 H   0  0  0  0  0  0  0  0  0  0  0  0
  1  2  2  0  0  0  0
  2  3  1  0  0  0  0
  2  4  1  0  0  0  0
  4 11  2  0  0  0  0
  4 43  1  0  0  0  0
  5  6  2  0  0  0  0
  5 10  1  0  0  0  0
  5 43  1  0  0  0  0
  6  7  1  0  0  0  0
  6 19  1  0  0  0  0
  7  8  2  0  0  0  0
  7 20  1  0  0  0  0
  8  9  1  0  0  0  0
  8 21  1  0  0  0  0
  9 10  2  0  0  0  0
  9 22  1  0  0  0  0
 10 11  1  0  0  0  0
 11 12  1  0  0  0  0
 12 23  1  0  0  0  0
 12 24  1  0  0  0  0
 12 13  1  0  0  0  0
 13 14  1  0  0  0  0
 13 25  1  0  0  0  0
 13 26  1  0  0  0  0
 14 15  1  0  0  0  0
 14 27  1  0  0  0  0
 14 28  1  0  0  0  0
 15 16  1  0  0  0  0
 16 18  2  0  0  0  0
 16 30  1  0  0  0  0
 17 18  1  0  0  0  0
 17 31  1  0  0  0  0
 17 33  2  0  0  0  0
 18 29  1  0  0  0  0
 30 32  2  0  0  0  0
 30 42  1  0  0  0  0
 32 33  1  0  0  0  0
 32 37  1  0  0  0  0
 33 34  1  0  0  0  0
 34 35  2  0  0  0  0
 34 38  1  0  0  0  0
 35 36  1  0  0  0  0
 35 39  1  0  0  0  0
 36 37  2  0  0  0  0
 36 40  1  0  0  0  0
 37 41  1  0  0  0  0
 43 44  1  0  0  0  0
M  CHG  1   3  -1
M  END
$$$$
