6b
 OpenBabel02232411173D

 55 57  0  0  1  0  0  0  0  0999 V2000
   17.9800  -13.0470   21.5280 N   0  0  0  0  0  0  0  0  0  0  0  0
   17.7020  -11.7010   20.9370 C   0  0  2  0  0  0  0  0  0  0  0  0
   17.0910  -13.6280   22.3900 C   0  0  0  0  0  0  0  0  0  0  0  0
   16.0780  -13.0310   22.7520 O   0  0  0  0  0  0  0  0  0  0  0  0
   16.2750  -11.6580   20.3230 C   0  0  0  0  0  0  0  0  0  0  0  0
   15.8230  -12.5520   19.6200 O   0  0  0  0  0  0  0  0  0  0  0  0
   18.7970  -11.4890   19.8740 C   0  0  0  0  0  0  0  0  0  0  0  0
   17.3830  -15.0590   22.9150 C   0  0  2  0  0  0  0  0  0  0  0  0
   15.5860  -10.4840   20.5700 N   0  0  0  0  0  0  0  0  0  0  0  0
   19.8690  -12.5720   20.0980 C   0  0  0  0  0  0  0  0  0  0  0  0
   16.0630  -15.8490   22.8420 N   0  3  0  0  0  0  0  0  0  0  0  0
   17.8780  -15.0420   24.3750 C   0  0  0  0  0  0  0  0  0  0  0  0
   14.1450  -10.3110   20.2540 C   0  0  0  0  0  0  0  0  0  0  0  0
   19.2270  -13.6620   20.9780 C   0  0  0  0  0  0  0  0  0  0  0  0
   19.3390  -14.6780   24.4920 C   0  0  0  0  0  0  0  0  0  0  0  0
   13.2740  -10.3020   21.4900 C   0  0  0  0  0  0  0  0  0  0  0  0
   19.7300  -13.5420   25.2100 C   0  0  0  0  0  0  0  0  0  0  0  0
   12.3700  -11.3390   21.7930 C   0  0  0  0  0  0  0  0  0  0  0  0
   21.0860  -13.2240   25.3490 C   0  0  0  0  0  0  0  0  0  0  0  0
   11.4740  -11.1690   22.8650 C   0  0  0  0  0  0  0  0  0  0  0  0
   22.0620  -14.0560   24.7950 C   0  0  0  0  0  0  0  0  0  0  0  0
   11.5270  -10.0450   23.6870 C   0  0  0  0  0  0  0  0  0  0  0  0
   21.6750  -15.2040   24.0910 C   0  0  0  0  0  0  0  0  0  0  0  0
   12.5050   -9.0800   23.4320 C   0  0  0  0  0  0  0  0  0  0  0  0
   20.3220  -15.5130   23.9360 C   0  0  0  0  0  0  0  0  0  0  0  0
   13.3540   -9.1820   22.3330 C   0  0  0  0  0  0  0  0  0  0  0  0
   17.8070  -10.9310   21.7500 H   0  0  0  0  0  0  0  0  0  0  0  0
   18.3810  -11.5730   18.8440 H   0  0  0  0  0  0  0  0  0  0  0  0
   19.2340  -10.4790   20.0170 H   0  0  0  0  0  0  0  0  0  0  0  0
   18.1190  -15.6230   22.2720 H   0  0  0  0  0  0  0  0  0  0  0  0
   16.0160   -9.7640   21.1800 H   0  0  0  0  0  0  0  0  0  0  0  0
   20.2020  -13.0130   19.1290 H   0  0  0  0  0  0  0  0  0  0  0  0
   20.7590  -12.1420   20.6140 H   0  0  0  0  0  0  0  0  0  0  0  0
   16.2180  -16.8280   23.2270 H   0  0  0  0  0  0  0  0  0  0  0  0
   15.3020  -15.3510   23.4090 H   0  0  0  0  0  0  0  0  0  0  0  0
   15.7490  -15.9460   21.8350 H   0  0  0  0  0  0  0  0  0  0  0  0
   17.2470  -14.3430   24.9790 H   0  0  0  0  0  0  0  0  0  0  0  0
   17.7610  -16.0760   24.8100 H   0  0  0  0  0  0  0  0  0  0  0  0
   14.0420   -9.3140   19.7370 H   0  0  0  0  0  0  0  0  0  0  0  0
   13.8340  -11.1140   19.5330 H   0  0  0  0  0  0  0  0  0  0  0  0
   19.9060  -13.9550   21.8180 H   0  0  0  0  0  0  0  0  0  0  0  0
   18.9720  -14.5640   20.3650 H   0  0  0  0  0  0  0  0  0  0  0  0
   18.9800  -12.9140   25.6830 H   0  0  0  0  0  0  0  0  0  0  0  0
   21.3620  -12.3200   25.8970 H   0  0  0  0  0  0  0  0  0  0  0  0
   10.7250  -11.9430   23.0700 H   0  0  0  0  0  0  0  0  0  0  0  0
   23.1240  -13.8260   24.9170 H   0  0  0  0  0  0  0  0  0  0  0  0
   22.4250  -15.8730   23.6580 H   0  0  0  0  0  0  0  0  0  0  0  0
   12.7110   -7.7680   24.5270 Cl  0  0  0  0  0  0  0  0  0  0  0  0
   20.0290  -16.4140   23.3910 H   0  0  0  0  0  0  0  0  0  0  0  0
   14.0930   -8.4070   22.1270 H   0  0  0  0  0  0  0  0  0  0  0  0
   10.8160   -9.9360   24.5140 H   0  0  0  0  0  0  0  0  0  0  0  0
   12.3520  -12.6290   21.0390 C   0  0  0  0  0  0  0  0  0  0  0  0
   11.6040  -13.3420   21.4700 H   0  0  0  0  0  0  0  0  0  0  0  0
   12.1070  -12.4820   19.9640 H   0  0  0  0  0  0  0  0  0  0  0  0
   13.3520  -13.1230   21.1110 H   0  0  0  0  0  0  0  0  0  0  0  0
  1  2  1  0  0  0  0
  1 14  1  0  0  0  0
  1  3  1  0  0  0  0
  2  5  1  0  0  0  0
  2  7  1  0  0  0  0
  2 27  1  1  0  0  0
  3  8  1  0  0  0  0
  3  4  2  0  0  0  0
  5  6  2  0  0  0  0
  5  9  1  0  0  0  0
  7 10  1  0  0  0  0
  7 28  1  0  0  0  0
  7 29  1  0  0  0  0
  8 11  1  0  0  0  0
  8 12  1  0  0  0  0
  8 30  1  6  0  0  0
  9 13  1  0  0  0  0
  9 31  1  0  0  0  0
 10 14  1  0  0  0  0
 10 32  1  0  0  0  0
 10 33  1  0  0  0  0
 11 34  1  0  0  0  0
 11 35  1  0  0  0  0
 11 36  1  0  0  0  0
 12 15  1  0  0  0  0
 12 37  1  0  0  0  0
 12 38  1  0  0  0  0
 13 16  1  0  0  0  0
 13 39  1  0  0  0  0
 13 40  1  0  0  0  0
 14 41  1  0  0  0  0
 14 42  1  0  0  0  0
 15 17  2  0  0  0  0
 15 25  1  0  0  0  0
 16 18  2  0  0  0  0
 16 26  1  0  0  0  0
 17 19  1  0  0  0  0
 17 43  1  0  0  0  0
 18 20  1  0  0  0  0
 18 52  1  0  0  0  0
 19 21  2  0  0  0  0
 19 44  1  0  0  0  0
 20 22  2  0  0  0  0
 20 45  1  0  0  0  0
 21 23  1  0  0  0  0
 21 46  1  0  0  0  0
 22 24  1  0  0  0  0
 22 51  1  0  0  0  0
 23 25  2  0  0  0  0
 23 47  1  0  0  0  0
 24 26  2  0  0  0  0
 24 48  1  0  0  0  0
 25 49  1  0  0  0  0
 26 50  1  0  0  0  0
 52 53  1  0  0  0  0
 52 54  1  0  0  0  0
 52 55  1  0  0  0  0
M  CHG  1  11   1
M  END
$$$$
