p38a_2x
 OpenBabel02232411163D
Structure written by MMmdl.
 43 46  0  0  1  0  0  0  0  0999 V2000
   38.2760   36.5510   17.1310 C   0  0  0  0  0  0  0  0  0  0  0  0
   34.6460   35.0980   21.2100 C   0  0  0  0  0  0  0  0  0  0  0  0
   37.4740   36.0920   18.1730 C   0  0  0  0  0  0  0  0  0  0  0  0
   34.2080   39.1640   23.7880 C   0  0  0  0  0  0  0  0  0  0  0  0
   34.6980   37.9760   21.3520 C   0  0  0  0  0  0  0  0  0  0  0  0
   35.0210   37.3250   20.1120 C   0  0  0  0  0  0  0  0  0  0  0  0
   37.6460   36.7230   15.8910 C   0  0  0  0  0  0  0  0  0  0  0  0
   36.2990   36.4340   15.6630 C   0  0  0  0  0  0  0  0  0  0  0  0
   35.5180   35.9620   16.7230 C   0  0  0  0  0  0  0  0  0  0  0  0
   34.4690   37.1970   22.5260 C   0  0  0  0  0  0  0  0  0  0  0  0
   34.6160   39.3870   21.4890 C   0  0  0  0  0  0  0  0  0  0  0  0
   35.0330   35.9730   20.0710 C   0  0  0  0  0  0  0  0  0  0  0  0
   36.1110   35.7840   17.9760 C   0  0  0  0  0  0  0  0  0  0  0  0
   34.2300   35.0090   23.7000 C   0  0  0  0  0  0  0  0  0  0  0  0
   37.9900   35.9430   19.3860 F   0  0  0  0  0  0  0  0  0  0  0  0
   35.3630   35.1630   18.9850 O   0  0  0  0  0  0  0  0  0  0  0  0
   34.3780   39.9930   22.6630 N   0  0  0  0  0  0  0  0  0  0  0  0
   34.4860   33.8990   21.1580 O   0  0  0  0  0  0  0  0  0  0  0  0
   34.4580   35.7960   22.4550 N   0  0  0  0  0  0  0  0  0  0  0  0
   34.2420   37.7850   23.7460 N   0  0  0  0  0  0  0  0  0  0  0  0
   33.9340   39.7850   24.9860 N   0  0  0  0  0  0  0  0  0  0  0  0
   39.3290   36.8030   17.2820 H   0  0  0  0  0  0  0  0  0  0  0  0
   35.2600   37.9470   19.2480 H   0  0  0  0  0  0  0  0  0  0  0  0
   35.8440   36.5890   14.6830 H   0  0  0  0  0  0  0  0  0  0  0  0
   34.4550   35.7520   16.5660 H   0  0  0  0  0  0  0  0  0  0  0  0
   34.7470   40.0360   20.6070 H   0  0  0  0  0  0  0  0  0  0  0  0
   34.9840   35.3000   24.4800 H   0  0  0  0  0  0  0  0  0  0  0  0
   33.2030   35.2180   24.1040 H   0  0  0  0  0  0  0  0  0  0  0  0
   34.3260   33.9120   23.4880 H   0  0  0  0  0  0  0  0  0  0  0  0
   33.9320   40.8240   25.0390 H   0  0  0  0  0  0  0  0  0  0  0  0
   38.3600   37.2280   14.8870 F   0  0  0  0  0  0  0  0  0  0  0  0
   33.0220   39.3910   28.4720 O   0  0  0  0  0  0  0  0  0  0  0  0
   34.4010   39.8530   28.5750 C   0  0  0  0  0  0  0  0  0  0  0  0
   35.0770   39.6090   27.2170 C   0  0  0  0  0  0  0  0  0  0  0  0
   33.9500   39.0820   26.2900 C   0  0  1  0  0  0  0  0  0  0  0  0
   32.6430   39.3910   27.0750 C   0  0  0  0  0  0  0  0  0  0  0  0
   34.8360   39.2430   29.3960 H   0  0  0  0  0  0  0  0  0  0  0  0
   34.3700   40.9340   28.8340 H   0  0  0  0  0  0  0  0  0  0  0  0
   35.5100   40.5610   26.8280 H   0  0  0  0  0  0  0  0  0  0  0  0
   35.8980   38.8630   27.2990 H   0  0  0  0  0  0  0  0  0  0  0  0
   34.0610   37.9750   26.1370 H   0  0  0  0  0  0  0  0  0  0  0  0
   31.8810   38.5900   26.9850 H   0  0  0  0  0  0  0  0  0  0  0  0
   32.2390   40.3970   26.8220 H   0  0  0  0  0  0  0  0  0  0  0  0
  1  3  2  0  0  0  0
  1  7  1  0  0  0  0
  1 22  1  0  0  0  0
  2 12  1  0  0  0  0
  2 18  2  0  0  0  0
  2 19  1  0  0  0  0
  3 13  1  0  0  0  0
  3 15  1  0  0  0  0
  4 17  2  0  0  0  0
  4 20  1  0  0  0  0
  4 21  1  0  0  0  0
  5  6  1  0  0  0  0
  5 10  1  0  0  0  0
  5 11  2  0  0  0  0
  6 12  2  0  0  0  0
  6 23  1  0  0  0  0
  7  8  2  0  0  0  0
  7 31  1  0  0  0  0
  8  9  1  0  0  0  0
  8 24  1  0  0  0  0
  9 13  2  0  0  0  0
  9 25  1  0  0  0  0
 10 19  1  0  0  0  0
 10 20  2  0  0  0  0
 11 17  1  0  0  0  0
 11 26  1  0  0  0  0
 12 16  1  0  0  0  0
 13 16  1  0  0  0  0
 14 19  1  0  0  0  0
 14 27  1  0  0  0  0
 14 28  1  0  0  0  0
 14 29  1  0  0  0  0
 21 30  1  0  0  0  0
 21 35  1  0  0  0  0
 32 33  1  0  0  0  0
 32 36  1  0  0  0  0
 33 34  1  0  0  0  0
 33 37  1  0  0  0  0
 33 38  1  0  0  0  0
 34 35  1  0  0  0  0
 34 39  1  0  0  0  0
 34 40  1  0  0  0  0
 35 36  1  0  0  0  0
 35 41  1  1  0  0  0
 36 42  1  0  0  0  0
 36 43  1  0  0  0  0
M  END
$$$$
