ejm_45
 OpenBabel02232411173D
Structure written by MMmdl.
 39 41  0  0  0  0  0  0  0  0999 V2000
   -1.5620   21.5250  -27.6050 C   0  0  0  0  0  0  0  0  0  0  0  0
   -2.8350   21.0060  -27.8570 C   0  0  0  0  0  0  0  0  0  0  0  0
   -3.6160   21.5630  -28.8700 C   0  0  0  0  0  0  0  0  0  0  0  0
   -3.1590   22.6400  -29.6450 C   0  0  0  0  0  0  0  0  0  0  0  0
   -1.8880   23.1500  -29.3550 C   0  0  0  0  0  0  0  0  0  0  0  0
   -1.0840   22.6030  -28.3520 C   0  0  0  0  0  0  0  0  0  0  0  0
   -1.2730   24.4930  -30.2250 Cl  0  0  0  0  0  0  0  0  0  0  0  0
   -4.0250   23.1450  -30.7630 C   0  0  0  0  0  0  0  0  0  0  0  0
   -4.4260   22.4260  -31.6530 O   0  0  0  0  0  0  0  0  0  0  0  0
   -4.3480   24.5130  -30.6510 N   0  0  0  0  0  0  0  0  0  0  0  0
   -5.1920   25.2630  -31.5180 C   0  0  0  0  0  0  0  0  0  0  0  0
   -5.8670   24.7120  -32.6190 C   0  0  0  0  0  0  0  0  0  0  0  0
   -6.7130   25.5470  -33.3650 C   0  0  0  0  0  0  0  0  0  0  0  0
   -6.9000   26.8620  -33.0920 N   0  0  0  0  0  0  0  0  0  0  0  0
   -6.2160   27.3950  -32.0160 C   0  0  0  0  0  0  0  0  0  0  0  0
   -5.3590   26.6300  -31.2120 C   0  0  0  0  0  0  0  0  0  0  0  0
   -6.4670   28.7760  -31.7810 N   0  0  0  0  0  0  0  0  0  0  0  0
   -5.7050   29.6290  -30.9340 C   0  0  0  0  0  0  0  0  0  0  0  0
   -4.7840   29.1890  -30.2740 O   0  0  0  0  0  0  0  0  0  0  0  0
   -6.1470   31.0750  -30.9510 C   0  0  0  0  0  0  0  0  0  0  0  0
   -5.1700   20.9100  -29.1800 Cl  0  0  0  0  0  0  0  0  0  0  0  0
   -5.9230   31.5220  -31.9540 H   0  0  0  0  0  0  0  0  0  0  0  0
   -0.9380   21.0890  -26.8160 H   0  0  0  0  0  0  0  0  0  0  0  0
   -3.2020   20.1780  -27.2490 H   0  0  0  0  0  0  0  0  0  0  0  0
   -0.0920   23.0120  -28.1360 H   0  0  0  0  0  0  0  0  0  0  0  0
   -3.9440   25.0360  -29.8530 H   0  0  0  0  0  0  0  0  0  0  0  0
   -5.7660   23.6590  -32.8930 H   0  0  0  0  0  0  0  0  0  0  0  0
   -7.2760   25.1450  -34.2240 H   0  0  0  0  0  0  0  0  0  0  0  0
   -4.8280   27.0840  -30.3690 H   0  0  0  0  0  0  0  0  0  0  0  0
   -7.3340   29.1600  -32.2190 H   0  0  0  0  0  0  0  0  0  0  0  0
   -7.2560   31.1680  -30.8160 H   0  0  0  0  0  0  0  0  0  0  0  0
   -5.7050   31.5500  -28.8570 H   0  0  0  0  0  0  0  0  0  0  0  0
   -5.4550   31.8850  -29.8720 C   0  0  0  0  0  0  0  0  0  0  0  0
   -4.0610   32.4490  -30.1160 C   0  0  0  0  0  0  0  0  0  0  0  0
   -5.2580   33.3810  -30.0870 C   0  0  0  0  0  0  0  0  0  0  0  0
   -3.3500   32.4770  -29.2790 H   0  0  0  0  0  0  0  0  0  0  0  0
   -3.5680   32.2550  -31.0760 H   0  0  0  0  0  0  0  0  0  0  0  0
   -5.3900   34.0560  -29.2320 H   0  0  0  0  0  0  0  0  0  0  0  0
   -5.6100   33.8330  -31.0230 H   0  0  0  0  0  0  0  0  0  0  0  0
  1  2  2  0  0  0  0
  1  6  1  0  0  0  0
  1 23  1  0  0  0  0
  2  3  1  0  0  0  0
  2 24  1  0  0  0  0
  3  4  2  0  0  0  0
  3 21  1  0  0  0  0
  4  5  1  0  0  0  0
  4  8  1  0  0  0  0
  5  6  2  0  0  0  0
  5  7  1  0  0  0  0
  6 25  1  0  0  0  0
  8  9  2  0  0  0  0
  8 10  1  0  0  0  0
 10 11  1  0  0  0  0
 10 26  1  0  0  0  0
 11 12  2  0  0  0  0
 11 16  1  0  0  0  0
 12 13  1  0  0  0  0
 12 27  1  0  0  0  0
 13 14  2  0  0  0  0
 13 28  1  0  0  0  0
 14 15  1  0  0  0  0
 15 16  2  0  0  0  0
 15 17  1  0  0  0  0
 16 29  1  0  0  0  0
 17 18  1  0  0  0  0
 17 30  1  0  0  0  0
 18 19  2  0  0  0  0
 18 20  1  0  0  0  0
 20 22  1  0  0  0  0
 20 31  1  0  0  0  0
 20 33  1  0  0  0  0
 32 33  1  0  0  0  0
 33 34  1  0  0  0  0
 33 35  1  0  0  0  0
 34 35  1  0  0  0  0
 34 36  1  0  0  0  0
 34 37  1  0  0  0  0
 35 38  1  0  0  0  0
 35 39  1  0  0  0  0
M  END
$$$$
