52 flip
                    3D
 Schrodinger Suite 2022-3.
 41 43  0  0  1  0  0  0  0  0999 V2000
    3.6820  -48.4590    7.3110 O   0  0  0  0  0  0  0  0  0  0  0  0
    3.3070  -49.2560    6.4420 C   0  0  0  0  0  0  0  0  0  0  0  0
    4.0150  -49.9420    5.6850 O   0  5  0  0  0  0  0  0  0  0  0  0
    1.7880  -49.4680    6.2950 C   0  0  0  0  0  0  0  0  0  0  0  0
   -0.1270  -50.7080    6.3790 C   0  0  0  0  0  0  0  0  0  0  0  0
   -1.0970  -51.7090    6.5500 C   0  0  0  0  0  0  0  0  0  0  0  0
   -2.3880  -51.3430    6.2180 C   0  0  0  0  0  0  0  0  0  0  0  0
   -2.7630  -50.0740    5.7380 C   0  0  0  0  0  0  0  0  0  0  0  0
   -1.7950  -49.0910    5.5730 C   0  0  0  0  0  0  0  0  0  0  0  0
   -0.4630  -49.3870    5.8970 C   0  0  0  0  0  0  0  0  0  0  0  0
    0.7680  -48.6270    5.8700 C   0  0  0  0  0  0  0  0  0  0  0  0
    0.8220  -47.1950    5.4810 C   0  0  0  0  0  0  0  0  0  0  0  0
    0.6910  -46.2620    6.6990 C   0  0  0  0  0  0  0  0  0  0  0  0
   -0.6600  -46.3480    7.4040 C   0  0  0  0  0  0  0  0  0  0  0  0
   -1.6030  -45.7190    6.4570 O   0  0  0  0  0  0  0  0  0  0  0  0
   -2.8770  -45.4940    6.8780 C   0  0  0  0  0  0  0  0  0  0  0  0
   -3.4150  -45.9540    8.0910 C   0  0  0  0  0  0  0  0  0  0  0  0
   -4.7400  -45.6410    8.4250 C   0  0  0  0  0  0  0  0  0  0  0  0
   -5.3260  -46.1150    9.7130 C   0  0  0  0  0  0  0  0  0  0  0  0
   -5.4940  -44.8820    7.5170 C   0  0  0  0  0  0  0  0  0  0  0  0
   -7.1460  -44.5290    7.8780 Cl  0  0  0  0  0  0  0  0  0  0  0  0
   -4.9650  -44.4200    6.3060 C   0  0  0  0  0  0  0  0  0  0  0  0
   -3.6520  -44.7270    5.9750 C   0  0  0  0  0  0  0  0  0  0  0  0
   -0.8480  -52.7040    6.9200 H   0  0  0  0  0  0  0  0  0  0  0  0
   -3.6390  -52.5400    6.3620 Cl  0  0  0  0  0  0  0  0  0  0  0  0
   -3.8070  -49.8740    5.4980 H   0  0  0  0  0  0  0  0  0  0  0  0
   -2.0800  -48.1050    5.2000 H   0  0  0  0  0  0  0  0  0  0  0  0
   -0.0310  -46.9780    4.7880 H   0  0  0  0  0  0  0  0  0  0  0  0
    1.7770  -46.9570    4.9530 H   0  0  0  0  0  0  0  0  0  0  0  0
    0.8330  -45.2080    6.3660 H   0  0  0  0  0  0  0  0  0  0  0  0
    1.4760  -46.5420    7.4430 H   0  0  0  0  0  0  0  0  0  0  0  0
   -0.6780  -45.7380    8.3330 H   0  0  0  0  0  0  0  0  0  0  0  0
   -1.0080  -47.3920    7.5550 H   0  0  0  0  0  0  0  0  0  0  0  0
   -2.8380  -46.5700    8.7760 H   0  0  0  0  0  0  0  0  0  0  0  0
   -5.9080  -45.3040   10.2130 H   0  0  0  0  0  0  0  0  0  0  0  0
   -6.0200  -46.9690    9.5170 H   0  0  0  0  0  0  0  0  0  0  0  0
   -4.5340  -46.4700   10.4120 H   0  0  0  0  0  0  0  0  0  0  0  0
   -3.2260  -44.3860    5.0360 H   0  0  0  0  0  0  0  0  0  0  0  0
   -5.5830  -43.8330    5.6220 H   0  0  0  0  0  0  0  0  0  0  0  0
    1.2520  -50.7320    6.6120 N   0  0  0  0  0  0  0  0  0  0  0  0
    1.7500  -51.5500    6.9450 H   0  0  0  0  0  0  0  0  0  0  0  0
  1  2  2  0  0  0  0
  2  3  1  0  0  0  0
  2  4  1  0  0  0  0
  4 11  2  0  0  0  0
  4 40  1  0  0  0  0
  5  6  1  0  0  0  0
  5 10  2  0  0  0  0
  5 40  1  0  0  0  0
  6  7  2  0  0  0  0
  6 24  1  0  0  0  0
  7  8  1  0  0  0  0
  7 25  1  0  0  0  0
  8  9  2  0  0  0  0
  8 26  1  0  0  0  0
  9 10  1  0  0  0  0
  9 27  1  0  0  0  0
 10 11  1  0  0  0  0
 11 12  1  0  0  0  0
 12 28  1  0  0  0  0
 12 29  1  0  0  0  0
 12 13  1  0  0  0  0
 13 14  1  0  0  0  0
 13 30  1  0  0  0  0
 13 31  1  0  0  0  0
 14 15  1  0  0  0  0
 14 32  1  0  0  0  0
 14 33  1  0  0  0  0
 15 16  1  0  0  0  0
 16 17  1  0  0  0  0
 16 23  2  0  0  0  0
 17 18  2  0  0  0  0
 17 34  1  0  0  0  0
 18 19  1  0  0  0  0
 18 20  1  0  0  0  0
 19 35  1  0  0  0  0
 19 36  1  0  0  0  0
 19 37  1  0  0  0  0
 20 21  1  0  0  0  0
 20 22  2  0  0  0  0
 22 23  1  0  0  0  0
 22 39  1  0  0  0  0
 23 38  1  0  0  0  0
 40 41  1  0  0  0  0
M  CHG  1   3  -1
M  END
$$$$
