18635-1
 OpenBabel02232411163D
Structure written by MMmdl.
 44 45  0  0  0  0  0  0  0  0999 V2000
   23.7990   12.6450   30.3750 C   0  0  0  0  0  0  0  0  0  0  0  0
   23.3720   11.1920   30.4560 C   0  0  0  0  0  0  0  0  0  0  0  0
   22.1420   11.2560   31.2880 O   0  0  0  0  0  0  0  0  0  0  0  0
   21.5140   10.1070   31.6100 C   0  0  0  0  0  0  0  0  0  0  0  0
   21.9910    8.9270   31.1480 N   0  0  0  0  0  0  0  0  0  0  0  0
   21.2730    7.7820   31.4640 C   0  0  0  0  0  0  0  0  0  0  0  0
   20.1290    7.8050   32.2560 C   0  0  0  0  0  0  0  0  0  0  0  0
   19.6350    9.0480   32.7340 C   0  0  0  0  0  0  0  0  0  0  0  0
   18.4870    9.0840   33.4840 N   0  0  0  0  0  0  0  0  0  0  0  0
   20.3360   10.2510   32.4030 C   0  0  0  0  0  0  0  0  0  0  0  0
   19.9150   11.5450   32.7750 C   0  0  0  0  0  0  0  0  0  0  0  0
   19.6160   12.6350   33.0380 N   0  0  0  0  0  0  0  0  0  0  0  0
   21.8320    6.6290   30.8640 N   0  0  0  0  0  0  0  0  0  0  0  0
   21.3170    5.3100   30.9130 C   0  0  0  0  0  0  0  0  0  0  0  0
   20.3200    5.0220   31.5430 O   0  0  0  0  0  0  0  0  0  0  0  0
   22.0810    4.3210   30.0490 C   0  0  0  0  0  0  0  0  0  0  0  0
   23.5510    4.2610   30.3710 C   0  0  0  0  0  0  0  0  0  0  0  0
   24.0360    3.4890   31.4470 C   0  0  0  0  0  0  0  0  0  0  0  0
   23.1300    2.6730   32.3120 C   0  0  0  0  0  0  0  0  0  0  0  0
   25.4180    3.4760   31.7030 C   0  0  0  0  0  0  0  0  0  0  0  0
   26.3050    4.2030   30.9130 C   0  0  0  0  0  0  0  0  0  0  0  0
   25.8280    4.9680   29.8370 C   0  0  0  0  0  0  0  0  0  0  0  0
   26.7680    5.7400   28.9690 C   0  0  0  0  0  0  0  0  0  0  0  0
   24.4500    4.9900   29.5770 C   0  0  0  0  0  0  0  0  0  0  0  0
   24.6780   12.7220   29.6850 H   0  0  0  0  0  0  0  0  0  0  0  0
   22.9790   13.2800   29.9640 H   0  0  0  0  0  0  0  0  0  0  0  0
   24.0940   13.0400   31.3720 H   0  0  0  0  0  0  0  0  0  0  0  0
   23.0850   10.7760   29.4640 H   0  0  0  0  0  0  0  0  0  0  0  0
   24.1160   10.5550   30.9830 H   0  0  0  0  0  0  0  0  0  0  0  0
   19.5920    6.8850   32.5010 H   0  0  0  0  0  0  0  0  0  0  0  0
   17.9840    8.2140   33.7440 H   0  0  0  0  0  0  0  0  0  0  0  0
   18.0830    9.9680   33.7950 H   0  0  0  0  0  0  0  0  0  0  0  0
   22.7060    6.7940   30.3250 H   0  0  0  0  0  0  0  0  0  0  0  0
   21.6340    3.3000   30.1860 H   0  0  0  0  0  0  0  0  0  0  0  0
   21.9210    4.6210   28.9810 H   0  0  0  0  0  0  0  0  0  0  0  0
   22.8570    1.7220   31.7890 H   0  0  0  0  0  0  0  0  0  0  0  0
   23.6310    2.3940   33.2720 H   0  0  0  0  0  0  0  0  0  0  0  0
   22.2000    3.2270   32.5600 H   0  0  0  0  0  0  0  0  0  0  0  0
   25.8110    2.8820   32.5340 H   0  0  0  0  0  0  0  0  0  0  0  0
   27.3760    4.1740   31.1340 H   0  0  0  0  0  0  0  0  0  0  0  0
   27.7680    5.8640   29.4500 H   0  0  0  0  0  0  0  0  0  0  0  0
   26.9180    5.2080   27.9960 H   0  0  0  0  0  0  0  0  0  0  0  0
   26.3660    6.7600   28.7500 H   0  0  0  0  0  0  0  0  0  0  0  0
   24.0870    5.5930   28.7440 H   0  0  0  0  0  0  0  0  0  0  0  0
  1  2  1  0  0  0  0
  1 25  1  0  0  0  0
  1 26  1  0  0  0  0
  1 27  1  0  0  0  0
  2  3  1  0  0  0  0
  2 28  1  0  0  0  0
  2 29  1  0  0  0  0
  3  4  1  0  0  0  0
  4 10  2  0  0  0  0
  4  5  1  0  0  0  0
  5  6  2  0  0  0  0
  6  7  1  0  0  0  0
  6 13  1  0  0  0  0
  7  8  2  0  0  0  0
  7 30  1  0  0  0  0
  8  9  1  0  0  0  0
  8 10  1  0  0  0  0
  9 31  1  0  0  0  0
  9 32  1  0  0  0  0
 10 11  1  0  0  0  0
 11 12  3  0  0  0  0
 13 14  1  0  0  0  0
 13 33  1  0  0  0  0
 14 15  2  0  0  0  0
 14 16  1  0  0  0  0
 16 17  1  0  0  0  0
 16 34  1  0  0  0  0
 16 35  1  0  0  0  0
 17 24  2  0  0  0  0
 17 18  1  0  0  0  0
 18 19  1  0  0  0  0
 18 20  2  0  0  0  0
 19 36  1  0  0  0  0
 19 37  1  0  0  0  0
 19 38  1  0  0  0  0
 20 21  1  0  0  0  0
 20 39  1  0  0  0  0
 21 22  2  0  0  0  0
 21 40  1  0  0  0  0
 22 23  1  0  0  0  0
 22 24  1  0  0  0  0
 23 41  1  0  0  0  0
 23 42  1  0  0  0  0
 23 43  1  0  0  0  0
 24 44  1  0  0  0  0
M  END
$$$$
