p38a_2t
 OpenBabel02232411163D
Structure written by MMmdl.
 47 50  0  0  0  0  0  0  0  0999 V2000
   36.4430   36.2110   15.5510 C   0  0  0  0  0  0  0  0  0  0  0  0
   34.7530   34.8050   20.9880 C   0  0  0  0  0  0  0  0  0  0  0  0
   35.8460   35.6480   16.6730 C   0  0  0  0  0  0  0  0  0  0  0  0
   34.1030   38.6940   23.8090 C   0  0  0  0  0  0  0  0  0  0  0  0
   34.9650   37.6510   21.3920 C   0  0  0  0  0  0  0  0  0  0  0  0
   35.4400   37.0750   20.1620 C   0  0  0  0  0  0  0  0  0  0  0  0
   37.7270   36.7420   15.7260 C   0  0  0  0  0  0  0  0  0  0  0  0
   38.4130   36.7170   16.9430 C   0  0  0  0  0  0  0  0  0  0  0  0
   37.7750   36.1850   18.0690 C   0  0  0  0  0  0  0  0  0  0  0  0
   34.5000   36.8140   22.4450 C   0  0  0  0  0  0  0  0  0  0  0  0
   34.9400   39.0520   21.6380 C   0  0  0  0  0  0  0  0  0  0  0  0
   35.3710   35.7340   20.0060 C   0  0  0  0  0  0  0  0  0  0  0  0
   36.4930   35.6490   17.9250 C   0  0  0  0  0  0  0  0  0  0  0  0
   34.6480   35.0850   16.5920 F   0  0  0  0  0  0  0  0  0  0  0  0
   35.8290   34.9580   18.9460 O   0  0  0  0  0  0  0  0  0  0  0  0
   34.5210   39.5840   22.7950 N   0  0  0  0  0  0  0  0  0  0  0  0
   34.5690   33.6220   20.8160 O   0  0  0  0  0  0  0  0  0  0  0  0
   34.3830   35.4200   22.2410 N   0  0  0  0  0  0  0  0  0  0  0  0
   34.1300   37.3220   23.6610 N   0  0  0  0  0  0  0  0  0  0  0  0
   33.7280   39.2700   25.0060 N   0  0  0  0  0  0  0  0  0  0  0  0
   35.9280   36.2570   14.5910 H   0  0  0  0  0  0  0  0  0  0  0  0
   35.8530   37.7450   19.4060 H   0  0  0  0  0  0  0  0  0  0  0  0
   39.4190   37.1320   17.0360 H   0  0  0  0  0  0  0  0  0  0  0  0
   38.2740   36.2200   19.0400 H   0  0  0  0  0  0  0  0  0  0  0  0
   35.2530   39.7540   20.8470 H   0  0  0  0  0  0  0  0  0  0  0  0
   33.7820   40.3140   25.0540 H   0  0  0  0  0  0  0  0  0  0  0  0
   38.3030   37.3290   14.6810 F   0  0  0  0  0  0  0  0  0  0  0  0
   31.3370   36.9610   24.7690 C   0  0  0  0  0  0  0  0  0  0  0  0
   32.3440   37.2490   25.8910 C   0  0  0  0  0  0  0  0  0  0  0  0
   32.7540   38.7250   26.0130 C   0  0  0  0  0  0  0  0  0  0  0  0
   31.4660   39.5820   26.0010 C   0  0  0  0  0  0  0  0  0  0  0  0
   30.6300   39.2790   24.7570 C   0  0  0  0  0  0  0  0  0  0  0  0
   30.2420   37.8970   24.7120 O   0  0  0  0  0  0  0  0  0  0  0  0
   30.7980   36.0020   24.9630 H   0  0  0  0  0  0  0  0  0  0  0  0
   31.8090   36.9720   23.7640 H   0  0  0  0  0  0  0  0  0  0  0  0
   33.2480   36.6040   25.7630 H   0  0  0  0  0  0  0  0  0  0  0  0
   31.8770   36.9670   26.8730 H   0  0  0  0  0  0  0  0  0  0  0  0
   33.2840   38.8690   27.0030 H   0  0  0  0  0  0  0  0  0  0  0  0
   30.8830   39.3130   26.9170 H   0  0  0  0  0  0  0  0  0  0  0  0
   31.7010   40.6660   26.0530 H   0  0  0  0  0  0  0  0  0  0  0  0
   29.6370   39.7740   24.7940 H   0  0  0  0  0  0  0  0  0  0  0  0
   31.1930   39.5250   23.8320 H   0  0  0  0  0  0  0  0  0  0  0  0
   33.8680   34.5380   23.3300 C   0  0  0  0  0  0  0  0  0  0  0  0
   33.0600   35.0670   23.9230 H   0  0  0  0  0  0  0  0  0  0  0  0
   33.3950   33.6110   22.8760 H   0  0  0  0  0  0  0  0  0  0  0  0
   34.9460   34.1510   24.2380 C   0  0  0  0  0  0  0  0  0  0  0  0
   35.7980   33.8490   24.9580 N   0  0  0  0  0  0  0  0  0  0  0  0
  1  3  2  0  0  0  0
  1  7  1  0  0  0  0
  1 21  1  0  0  0  0
  2 12  1  0  0  0  0
  2 17  2  0  0  0  0
  2 18  1  0  0  0  0
  3 13  1  0  0  0  0
  3 14  1  0  0  0  0
  4 16  2  0  0  0  0
  4 19  1  0  0  0  0
  4 20  1  0  0  0  0
  5  6  1  0  0  0  0
  5 10  1  0  0  0  0
  5 11  2  0  0  0  0
  6 12  2  0  0  0  0
  6 22  1  0  0  0  0
  7  8  2  0  0  0  0
  7 27  1  0  0  0  0
  8  9  1  0  0  0  0
  8 23  1  0  0  0  0
  9 13  2  0  0  0  0
  9 24  1  0  0  0  0
 10 18  1  0  0  0  0
 10 19  2  0  0  0  0
 11 16  1  0  0  0  0
 11 25  1  0  0  0  0
 12 15  1  0  0  0  0
 13 15  1  0  0  0  0
 18 43  1  0  0  0  0
 20 26  1  0  0  0  0
 20 30  1  0  0  0  0
 28 29  1  0  0  0  0
 28 33  1  0  0  0  0
 28 34  1  0  0  0  0
 28 35  1  0  0  0  0
 29 30  1  0  0  0  0
 29 36  1  0  0  0  0
 29 37  1  0  0  0  0
 30 31  1  0  0  0  0
 30 38  1  0  0  0  0
 31 32  1  0  0  0  0
 31 39  1  0  0  0  0
 31 40  1  0  0  0  0
 32 33  1  0  0  0  0
 32 41  1  0  0  0  0
 32 42  1  0  0  0  0
 43 44  1  0  0  0  0
 43 45  1  0  0  0  0
 43 46  1  0  0  0  0
 46 47  3  0  0  0  0
M  END
$$$$
