57 flip
                    3D
 Schrodinger Suite 2022-3.
 47 50  0  0  1  0  0  0  0  0999 V2000
    3.3850  -48.3620    7.2280 O   0  0  0  0  0  0  0  0  0  0  0  0
    2.9600  -49.2180    6.4390 C   0  0  0  0  0  0  0  0  0  0  0  0
    3.6260  -49.8900    5.6290 O   0  5  0  0  0  0  0  0  0  0  0  0
    1.4480  -49.5170    6.4290 C   0  0  0  0  0  0  0  0  0  0  0  0
   -0.4400  -50.8100    6.5710 C   0  0  0  0  0  0  0  0  0  0  0  0
   -1.3960  -51.8260    6.7570 C   0  0  0  0  0  0  0  0  0  0  0  0
   -2.7130  -51.5420    6.4320 C   0  0  0  0  0  0  0  0  0  0  0  0
   -3.0900  -50.2740    5.9280 C   0  0  0  0  0  0  0  0  0  0  0  0
   -2.1570  -49.2640    5.7430 C   0  0  0  0  0  0  0  0  0  0  0  0
   -0.8110  -49.5090    6.0640 C   0  0  0  0  0  0  0  0  0  0  0  0
    0.3930  -48.7140    6.0050 C   0  0  0  0  0  0  0  0  0  0  0  0
    0.4280  -47.2900    5.5770 C   0  0  0  0  0  0  0  0  0  0  0  0
    0.2930  -46.3060    6.7570 C   0  0  0  0  0  0  0  0  0  0  0  0
   -1.0560  -46.4000    7.4740 C   0  0  0  0  0  0  0  0  0  0  0  0
   -2.0240  -45.9690    6.4560 O   0  0  0  0  0  0  0  0  0  0  0  0
   -3.2470  -45.4560    6.7730 C   0  0  0  0  0  0  0  0  0  0  0  0
   -5.7730  -44.2280    6.9860 C   0  0  0  0  0  0  0  0  0  0  0  0
   -4.9760  -43.9840    5.8930 C   0  0  0  0  0  0  0  0  0  0  0  0
   -3.7050  -44.5840    5.7880 C   0  0  0  0  0  0  0  0  0  0  0  0
   -1.1290  -52.8100    7.1440 H   0  0  0  0  0  0  0  0  0  0  0  0
   -3.4820  -52.3040    6.5650 H   0  0  0  0  0  0  0  0  0  0  0  0
   -4.1390  -50.1010    5.6870 H   0  0  0  0  0  0  0  0  0  0  0  0
   -2.4710  -48.2920    5.3580 H   0  0  0  0  0  0  0  0  0  0  0  0
   -0.4280  -47.1020    4.8760 H   0  0  0  0  0  0  0  0  0  0  0  0
    1.3790  -47.0600    5.0400 H   0  0  0  0  0  0  0  0  0  0  0  0
    0.4140  -45.2670    6.3750 H   0  0  0  0  0  0  0  0  0  0  0  0
    1.0870  -46.5230    7.5110 H   0  0  0  0  0  0  0  0  0  0  0  0
   -1.1220  -45.7110    8.3390 H   0  0  0  0  0  0  0  0  0  0  0  0
   -1.3100  -47.4540    7.7150 H   0  0  0  0  0  0  0  0  0  0  0  0
   -3.0880  -44.3600    4.9270 H   0  0  0  0  0  0  0  0  0  0  0  0
   -5.3310  -45.1170    8.0090 C   0  0  0  0  0  0  0  0  0  0  0  0
   -4.0730  -45.7850    7.9090 C   0  0  0  0  0  0  0  0  0  0  0  0
   -3.7670  -46.7750    8.8910 C   0  0  0  0  0  0  0  0  0  0  0  0
   -4.6140  -47.0280    9.9420 C   0  0  0  0  0  0  0  0  0  0  0  0
   -5.8280  -46.3010   10.0780 C   0  0  0  0  0  0  0  0  0  0  0  0
   -6.1820  -45.3740    9.1340 C   0  0  0  0  0  0  0  0  0  0  0  0
   -2.8690  -47.3840    8.8000 H   0  0  0  0  0  0  0  0  0  0  0  0
   -4.3870  -47.8050   10.6710 H   0  0  0  0  0  0  0  0  0  0  0  0
   -6.4820  -46.5080   10.9210 H   0  0  0  0  0  0  0  0  0  0  0  0
   -7.1250  -44.8340    9.2100 H   0  0  0  0  0  0  0  0  0  0  0  0
   -5.3130  -43.3180    5.0960 H   0  0  0  0  0  0  0  0  0  0  0  0
   -6.7550  -43.7640    7.0750 H   0  0  0  0  0  0  0  0  0  0  0  0
    1.7080  -51.9040    7.3620 C   0  0  0  0  0  0  0  0  0  0  0  0
    1.0090  -52.7140    7.7130 H   0  0  0  0  0  0  0  0  0  0  0  0
    2.3990  -52.3620    6.6030 H   0  0  0  0  0  0  0  0  0  0  0  0
    2.3040  -51.5740    8.2540 H   0  0  0  0  0  0  0  0  0  0  0  0
    0.9490  -50.7850    6.7860 N   0  0  0  0  0  0  0  0  0  0  0  0
  1  2  2  0  0  0  0
  2  3  1  0  0  0  0
  2  4  1  0  0  0  0
  4 11  2  0  0  0  0
  4 47  1  0  0  0  0
  5  6  1  0  0  0  0
  5 10  2  0  0  0  0
  5 47  1  0  0  0  0
  6  7  2  0  0  0  0
  6 20  1  0  0  0  0
  7  8  1  0  0  0  0
  7 21  1  0  0  0  0
  8  9  2  0  0  0  0
  8 22  1  0  0  0  0
  9 10  1  0  0  0  0
  9 23  1  0  0  0  0
 10 11  1  0  0  0  0
 11 12  1  0  0  0  0
 12 24  1  0  0  0  0
 12 25  1  0  0  0  0
 12 13  1  0  0  0  0
 13 14  1  0  0  0  0
 13 26  1  0  0  0  0
 13 27  1  0  0  0  0
 14 15  1  0  0  0  0
 14 28  1  0  0  0  0
 14 29  1  0  0  0  0
 15 16  1  0  0  0  0
 16 19  2  0  0  0  0
 16 32  1  0  0  0  0
 17 18  2  0  0  0  0
 17 31  1  0  0  0  0
 17 42  1  0  0  0  0
 18 19  1  0  0  0  0
 18 41  1  0  0  0  0
 19 30  1  0  0  0  0
 31 32  2  0  0  0  0
 31 36  1  0  0  0  0
 32 33  1  0  0  0  0
 33 34  2  0  0  0  0
 33 37  1  0  0  0  0
 34 35  1  0  0  0  0
 34 38  1  0  0  0  0
 35 36  2  0  0  0  0
 35 39  1  0  0  0  0
 36 40  1  0  0  0  0
 43 44  1  0  0  0  0
 43 45  1  0  0  0  0
 43 46  1  0  0  0  0
 43 47  1  0  0  0  0
M  CHG  1   3  -1
M  END
$$$$
