p38a_2aa
 OpenBabel02232411163D
Structure written by MMmdl.
 43 45  0  0  0  0  0  0  0  0999 V2000
   36.3240   35.9720   15.8760 C   0  0  0  0  0  0  0  0  0  0  0  0
   34.6260   35.0560   21.5080 C   0  0  0  0  0  0  0  0  0  0  0  0
   35.6330   35.5250   16.9980 C   0  0  0  0  0  0  0  0  0  0  0  0
   34.4970   39.1930   23.9980 C   0  0  0  0  0  0  0  0  0  0  0  0
   34.1160   39.2350   26.4770 C   0  0  0  0  0  0  0  0  0  0  0  0
   34.8600   37.9170   21.5920 C   0  0  0  0  0  0  0  0  0  0  0  0
   35.1820   37.2220   20.3750 C   0  0  0  0  0  0  0  0  0  0  0  0
   37.6190   36.4600   16.0920 C   0  0  0  0  0  0  0  0  0  0  0  0
   38.2360   36.4750   17.3460 C   0  0  0  0  0  0  0  0  0  0  0  0
   37.5100   36.0510   18.4640 C   0  0  0  0  0  0  0  0  0  0  0  0
   34.5940   37.1850   22.7870 C   0  0  0  0  0  0  0  0  0  0  0  0
   34.8120   39.3340   21.6800 C   0  0  0  0  0  0  0  0  0  0  0  0
   35.1170   35.8710   20.3640 C   0  0  0  0  0  0  0  0  0  0  0  0
   36.2050   35.5780   18.2850 C   0  0  0  0  0  0  0  0  0  0  0  0
   34.2050   35.0370   23.9980 C   0  0  0  0  0  0  0  0  0  0  0  0
   34.4120   35.0190   16.8810 F   0  0  0  0  0  0  0  0  0  0  0  0
   35.4320   35.0160   19.3100 O   0  0  0  0  0  0  0  0  0  0  0  0
   34.6170   39.9800   22.8400 N   0  0  0  0  0  0  0  0  0  0  0  0
   34.3470   33.8790   21.4650 O   0  0  0  0  0  0  0  0  0  0  0  0
   34.4810   35.7870   22.7410 N   0  0  0  0  0  0  0  0  0  0  0  0
   34.4200   37.8210   23.9960 N   0  0  0  0  0  0  0  0  0  0  0  0
   34.5510   39.8860   25.2090 N   0  0  0  0  0  0  0  0  0  0  0  0
   35.8720   35.9690   14.8810 H   0  0  0  0  0  0  0  0  0  0  0  0
   34.5920   40.1540   27.6330 C   0  0  0  0  0  0  0  0  0  0  0  0
   35.4900   37.8140   19.5090 H   0  0  0  0  0  0  0  0  0  0  0  0
   39.2600   36.8440   17.4600 H   0  0  0  0  0  0  0  0  0  0  0  0
   37.9580   36.1140   19.4570 H   0  0  0  0  0  0  0  0  0  0  0  0
   34.9260   39.9460   20.7700 H   0  0  0  0  0  0  0  0  0  0  0  0
   34.9760   35.2930   24.7750 H   0  0  0  0  0  0  0  0  0  0  0  0
   33.1920   35.3110   24.3980 H   0  0  0  0  0  0  0  0  0  0  0  0
   34.2390   33.9320   23.8060 H   0  0  0  0  0  0  0  0  0  0  0  0
   34.2710   40.8930   25.1690 H   0  0  0  0  0  0  0  0  0  0  0  0
   38.2760   36.9680   15.0520 F   0  0  0  0  0  0  0  0  0  0  0  0
   32.5800   39.0130   26.5340 C   0  0  0  0  0  0  0  0  0  0  0  0
   31.8710   39.9180   25.6790 O   0  0  0  0  0  0  0  0  0  0  0  0
   32.1650   40.8510   25.8660 H   0  0  0  0  0  0  0  0  0  0  0  0
   32.3070   38.0130   26.1200 H   0  0  0  0  0  0  0  0  0  0  0  0
   32.2130   39.1390   27.5800 H   0  0  0  0  0  0  0  0  0  0  0  0
   34.1960   39.4530   28.8330 O   0  0  0  0  0  0  0  0  0  0  0  0
   35.6980   40.2840   27.6140 H   0  0  0  0  0  0  0  0  0  0  0  0
   34.0700   41.1400   27.6300 H   0  0  0  0  0  0  0  0  0  0  0  0
   34.7330   39.7930   29.5940 H   0  0  0  0  0  0  0  0  0  0  0  0
   34.6330   38.2380   26.5840 H   0  0  0  0  0  0  0  0  0  0  0  0
  1  3  2  0  0  0  0
  1  8  1  0  0  0  0
  1 23  1  0  0  0  0
  2 13  1  0  0  0  0
  2 19  2  0  0  0  0
  2 20  1  0  0  0  0
  3 14  1  0  0  0  0
  3 16  1  0  0  0  0
  4 18  2  0  0  0  0
  4 21  1  0  0  0  0
  4 22  1  0  0  0  0
  5 22  1  0  0  0  0
  5 24  1  0  0  0  0
  5 34  1  0  0  0  0
  5 43  1  0  0  0  0
  6  7  1  0  0  0  0
  6 11  1  0  0  0  0
  6 12  2  0  0  0  0
  7 13  2  0  0  0  0
  7 25  1  0  0  0  0
  8  9  2  0  0  0  0
  8 33  1  0  0  0  0
  9 10  1  0  0  0  0
  9 26  1  0  0  0  0
 10 14  2  0  0  0  0
 10 27  1  0  0  0  0
 11 20  1  0  0  0  0
 11 21  2  0  0  0  0
 12 18  1  0  0  0  0
 12 28  1  0  0  0  0
 13 17  1  0  0  0  0
 14 17  1  0  0  0  0
 15 20  1  0  0  0  0
 15 29  1  0  0  0  0
 15 30  1  0  0  0  0
 15 31  1  0  0  0  0
 22 32  1  0  0  0  0
 24 39  1  0  0  0  0
 24 40  1  0  0  0  0
 24 41  1  0  0  0  0
 34 35  1  0  0  0  0
 34 37  1  0  0  0  0
 34 38  1  0  0  0  0
 35 36  1  0  0  0  0
 39 42  1  0  0  0  0
M  END
$$$$
