p38a_2k
 OpenBabel02232411163D
Structure written by MMmdl.
 43 46  0  0  0  0  0  0  0  0999 V2000
   36.3750   36.0780   15.7520 C   0  0  0  0  0  0  0  0  0  0  0  0
   34.5320   34.9770   21.2550 C   0  0  0  0  0  0  0  0  0  0  0  0
   35.7180   35.5850   16.8750 C   0  0  0  0  0  0  0  0  0  0  0  0
   33.9890   39.0230   23.8420 C   0  0  0  0  0  0  0  0  0  0  0  0
   34.7590   37.8480   21.4640 C   0  0  0  0  0  0  0  0  0  0  0  0
   35.2320   37.1830   20.2780 C   0  0  0  0  0  0  0  0  0  0  0  0
   37.6660   36.5820   15.9540 C   0  0  0  0  0  0  0  0  0  0  0  0
   38.3080   36.5790   17.1960 C   0  0  0  0  0  0  0  0  0  0  0  0
   37.6120   36.1150   18.3170 C   0  0  0  0  0  0  0  0  0  0  0  0
   34.2760   37.0780   22.5600 C   0  0  0  0  0  0  0  0  0  0  0  0
   34.7620   39.2580   21.6350 C   0  0  0  0  0  0  0  0  0  0  0  0
   35.1540   35.8330   20.2060 C   0  0  0  0  0  0  0  0  0  0  0  0
   36.3160   35.6190   18.1520 C   0  0  0  0  0  0  0  0  0  0  0  0
   33.7820   35.1590   23.2580 H   0  0  0  0  0  0  0  0  0  0  0  0
   34.5070   35.0550   16.7680 F   0  0  0  0  0  0  0  0  0  0  0  0
   35.5860   35.0010   19.1760 O   0  0  0  0  0  0  0  0  0  0  0  0
   34.3950   39.8560   22.7790 N   0  0  0  0  0  0  0  0  0  0  0  0
   34.3220   33.7870   21.1860 O   0  0  0  0  0  0  0  0  0  0  0  0
   34.1620   35.6850   22.4460 N   0  0  0  0  0  0  0  0  0  0  0  0
   33.9040   37.6430   23.7520 N   0  0  0  0  0  0  0  0  0  0  0  0
   33.6010   39.6350   25.0100 N   0  0  0  0  0  0  0  0  0  0  0  0
   35.9000   36.0940   14.7680 H   0  0  0  0  0  0  0  0  0  0  0  0
   35.6550   37.7980   19.4800 H   0  0  0  0  0  0  0  0  0  0  0  0
   39.3270   36.9610   17.3020 H   0  0  0  0  0  0  0  0  0  0  0  0
   38.0770   36.1680   19.3050 H   0  0  0  0  0  0  0  0  0  0  0  0
   35.0740   39.9090   20.8030 H   0  0  0  0  0  0  0  0  0  0  0  0
   33.7430   40.6590   25.1210 H   0  0  0  0  0  0  0  0  0  0  0  0
   38.2950   37.1230   14.9130 F   0  0  0  0  0  0  0  0  0  0  0  0
   32.2190   39.0070   28.5170 C   0  0  0  0  0  0  0  0  0  0  0  0
   32.3990   39.6970   27.1590 C   0  0  0  0  0  0  0  0  0  0  0  0
   33.3500   38.8690   26.2700 C   0  0  0  0  0  0  0  0  0  0  0  0
   34.6770   38.5930   27.0110 C   0  0  0  0  0  0  0  0  0  0  0  0
   34.3890   37.9550   28.3750 C   0  0  0  0  0  0  0  0  0  0  0  0
   33.4880   38.7660   29.1640 O   0  0  0  0  0  0  0  0  0  0  0  0
   31.6780   38.0380   28.4020 H   0  0  0  0  0  0  0  0  0  0  0  0
   31.7070   39.6770   29.2440 H   0  0  0  0  0  0  0  0  0  0  0  0
   32.8150   40.7210   27.3160 H   0  0  0  0  0  0  0  0  0  0  0  0
   31.4090   39.7970   26.6540 H   0  0  0  0  0  0  0  0  0  0  0  0
   32.8550   37.8930   26.0050 H   0  0  0  0  0  0  0  0  0  0  0  0
   35.3100   37.8960   26.4100 H   0  0  0  0  0  0  0  0  0  0  0  0
   35.2420   39.5460   27.1490 H   0  0  0  0  0  0  0  0  0  0  0  0
   33.9470   36.9380   28.2540 H   0  0  0  0  0  0  0  0  0  0  0  0
   35.3030   37.9300   29.0110 H   0  0  0  0  0  0  0  0  0  0  0  0
  1  3  2  0  0  0  0
  1  7  1  0  0  0  0
  1 22  1  0  0  0  0
  2 12  1  0  0  0  0
  2 18  2  0  0  0  0
  2 19  1  0  0  0  0
  3 13  1  0  0  0  0
  3 15  1  0  0  0  0
  4 17  2  0  0  0  0
  4 20  1  0  0  0  0
  4 21  1  0  0  0  0
  5  6  1  0  0  0  0
  5 10  1  0  0  0  0
  5 11  2  0  0  0  0
  6 12  2  0  0  0  0
  6 23  1  0  0  0  0
  7  8  2  0  0  0  0
  7 28  1  0  0  0  0
  8  9  1  0  0  0  0
  8 24  1  0  0  0  0
  9 13  2  0  0  0  0
  9 25  1  0  0  0  0
 10 19  1  0  0  0  0
 10 20  2  0  0  0  0
 11 17  1  0  0  0  0
 11 26  1  0  0  0  0
 12 16  1  0  0  0  0
 13 16  1  0  0  0  0
 14 19  1  0  0  0  0
 21 27  1  0  0  0  0
 21 31  1  0  0  0  0
 29 30  1  0  0  0  0
 29 34  1  0  0  0  0
 29 35  1  0  0  0  0
 29 36  1  0  0  0  0
 30 31  1  0  0  0  0
 30 37  1  0  0  0  0
 30 38  1  0  0  0  0
 31 32  1  0  0  0  0
 31 39  1  0  0  0  0
 32 33  1  0  0  0  0
 32 40  1  0  0  0  0
 32 41  1  0  0  0  0
 33 34  1  0  0  0  0
 33 42  1  0  0  0  0
 33 43  1  0  0  0  0
M  END
$$$$
