CAT-24
 OpenBabel02232411143D
Structure written by MMmdl.
 47 50  0  0  1  0  0  0  0  0999 V2000
   10.2400    5.7480   -4.2550 C   0  0  0  0  0  0  0  0  0  0  0  0
   11.4010    5.1190   -3.7110 C   0  0  0  0  0  0  0  0  0  0  0  0
   12.3850    4.5900   -3.2450 C   0  0  0  0  0  0  0  0  0  0  0  0
   13.5250    4.0030   -2.6600 C   0  0  0  0  0  0  0  0  0  0  0  0
   14.3120    4.7570   -1.7490 C   0  0  0  0  0  0  0  0  0  0  0  0
   15.4000    4.2470   -1.1300 N   0  0  0  0  0  0  0  0  0  0  0  0
   15.7450    2.9560   -1.3810 C   0  0  0  0  0  0  0  0  0  0  0  0
   15.0190    2.1440   -2.2760 C   0  0  0  0  0  0  0  0  0  0  0  0
   15.4220    0.7370   -2.4880 C   0  0  0  0  0  0  0  0  0  0  0  0
   16.2800    0.3780   -3.5410 C   0  0  0  0  0  0  0  0  0  0  0  0
   16.6900   -0.9490   -3.6850 C   0  0  0  0  0  0  0  0  0  0  0  0
   16.2320   -1.9350   -2.8040 C   0  0  0  0  0  0  0  0  0  0  0  0
   15.3370   -1.5890   -1.7860 C   0  0  0  0  0  0  0  0  0  0  0  0
   14.7680   -2.6340   -0.8530 C   0  0  1  0  0  0  0  0  0  0  0  0
   15.0140   -4.0830   -1.2440 C   0  0  0  0  0  0  0  0  0  0  0  0
   16.2430   -4.8280   -0.7520 C   0  0  0  0  0  0  0  0  0  0  0  0
   14.8790   -5.2010   -0.2160 C   0  0  0  0  0  0  0  0  0  0  0  0
   15.2160   -2.3190    0.5550 N   0  3  0  0  0  0  0  0  0  0  0  0
   14.1290   -2.4100    1.4330 C   0  0  0  0  0  0  0  0  0  0  0  0
   14.2840   -2.5280    2.7840 N   0  0  0  0  0  0  0  0  0  0  0  0
   12.9380   -2.4090    0.7160 N   0  0  0  0  0  0  0  0  0  0  0  0
   11.5930   -2.4840    1.3260 C   0  0  0  0  0  0  0  0  0  0  0  0
   13.2130   -2.4930   -0.7370 C   0  0  0  0  0  0  0  0  0  0  0  0
   12.3440   -2.4530   -1.5460 O   0  0  0  0  0  0  0  0  0  0  0  0
   14.9440   -0.2510   -1.6180 C   0  0  0  0  0  0  0  0  0  0  0  0
   13.9020    2.6780   -2.9310 C   0  0  0  0  0  0  0  0  0  0  0  0
   10.0060    6.7020   -3.7050 H   0  0  0  0  0  0  0  0  0  0  0  0
   10.3900    6.0030   -5.3410 H   0  0  0  0  0  0  0  0  0  0  0  0
    9.3410    5.0760   -4.1800 H   0  0  0  0  0  0  0  0  0  0  0  0
   14.0410    5.7980   -1.5120 H   0  0  0  0  0  0  0  0  0  0  0  0
   16.6190    2.5570   -0.8470 H   0  0  0  0  0  0  0  0  0  0  0  0
   16.6300    1.1350   -4.2490 H   0  0  0  0  0  0  0  0  0  0  0  0
   17.3790   -1.2250   -4.4890 H   0  0  0  0  0  0  0  0  0  0  0  0
   16.5760   -2.9650   -2.9100 H   0  0  0  0  0  0  0  0  0  0  0  0
   14.6680   -4.2950   -2.2720 H   0  0  0  0  0  0  0  0  0  0  0  0
   16.7680   -5.4870   -1.4420 H   0  0  0  0  0  0  0  0  0  0  0  0
   16.9550   -4.3170   -0.1010 H   0  0  0  0  0  0  0  0  0  0  0  0
   14.6350   -4.9540    0.8250 H   0  0  0  0  0  0  0  0  0  0  0  0
   14.4060   -6.1410   -0.5320 H   0  0  0  0  0  0  0  0  0  0  0  0
   16.1550   -2.6580    0.9060 H   0  0  0  0  0  0  0  0  0  0  0  0
   13.5700   -2.1360    3.4490 H   0  0  0  0  0  0  0  0  0  0  0  0
   11.0070   -3.3030    0.8260 H   0  0  0  0  0  0  0  0  0  0  0  0
   11.6590   -2.7190    2.4200 H   0  0  0  0  0  0  0  0  0  0  0  0
   11.0680   -1.5010    1.1870 H   0  0  0  0  0  0  0  0  0  0  0  0
   14.2750    0.0180   -0.8010 H   0  0  0  0  0  0  0  0  0  0  0  0
   13.3310    2.0650   -3.6340 H   0  0  0  0  0  0  0  0  0  0  0  0
   15.2670   -2.4450    3.1760 H   0  0  0  0  0  0  0  0  0  0  0  0
  1  2  1  0  0  0  0
  1 27  1  0  0  0  0
  1 28  1  0  0  0  0
  1 29  1  0  0  0  0
  2  3  3  0  0  0  0
  3  4  1  0  0  0  0
  4  5  2  0  0  0  0
  4 26  1  0  0  0  0
  5  6  1  0  0  0  0
  5 30  1  0  0  0  0
  6  7  2  0  0  0  0
  7  8  1  0  0  0  0
  7 31  1  0  0  0  0
  8  9  1  0  0  0  0
  8 26  2  0  0  0  0
  9 10  2  0  0  0  0
  9 25  1  0  0  0  0
 10 11  1  0  0  0  0
 10 32  1  0  0  0  0
 11 12  2  0  0  0  0
 11 33  1  0  0  0  0
 12 13  1  0  0  0  0
 12 34  1  0  0  0  0
 13 25  2  0  0  0  0
 14 13  1  6  0  0  0
 14 15  1  0  0  0  0
 14 18  1  0  0  0  0
 14 23  1  0  0  0  0
 15 16  1  0  0  0  0
 15 17  1  0  0  0  0
 15 35  1  0  0  0  0
 16 17  1  0  0  0  0
 16 36  1  0  0  0  0
 16 37  1  0  0  0  0
 17 38  1  0  0  0  0
 17 39  1  0  0  0  0
 18 19  2  0  0  0  0
 18 40  1  0  0  0  0
 19 20  1  0  0  0  0
 19 21  1  0  0  0  0
 20 41  1  0  0  0  0
 20 47  1  0  0  0  0
 21 22  1  0  0  0  0
 21 23  1  0  0  0  0
 22 42  1  0  0  0  0
 22 43  1  0  0  0  0
 22 44  1  0  0  0  0
 23 24  2  0  0  0  0
 25 45  1  0  0  0  0
 26 46  1  0  0  0  0
M  CHG  1  18   1
M  END
$$$$
