p38a_2n
 OpenBabel02232411163D
Structure written by MMmdl.
 53 56  0  0  0  0  0  0  0  0999 V2000
   38.1990   36.4560   17.3000 C   0  0  0  0  0  0  0  0  0  0  0  0
   34.3220   35.1270   21.3610 C   0  0  0  0  0  0  0  0  0  0  0  0
   37.4140   36.0300   18.3680 C   0  0  0  0  0  0  0  0  0  0  0  0
   33.6690   39.2700   23.7800 C   0  0  0  0  0  0  0  0  0  0  0  0
   34.4980   37.9950   21.4770 C   0  0  0  0  0  0  0  0  0  0  0  0
   34.9660   37.3100   20.3030 C   0  0  0  0  0  0  0  0  0  0  0  0
   37.5500   36.5950   16.0650 C   0  0  0  0  0  0  0  0  0  0  0  0
   36.1970   36.3050   15.8710 C   0  0  0  0  0  0  0  0  0  0  0  0
   35.4330   35.8700   16.9600 C   0  0  0  0  0  0  0  0  0  0  0  0
   33.9700   37.2650   22.5820 C   0  0  0  0  0  0  0  0  0  0  0  0
   34.5540   39.4090   21.6060 C   0  0  0  0  0  0  0  0  0  0  0  0
   34.9050   35.9600   20.2730 C   0  0  0  0  0  0  0  0  0  0  0  0
   36.0470   35.7200   18.2070 C   0  0  0  0  0  0  0  0  0  0  0  0
   37.9530   35.9050   19.5730 F   0  0  0  0  0  0  0  0  0  0  0  0
   35.3310   35.1150   19.2490 O   0  0  0  0  0  0  0  0  0  0  0  0
   34.1720   40.0540   22.7160 N   0  0  0  0  0  0  0  0  0  0  0  0
   34.2110   33.9210   21.3350 O   0  0  0  0  0  0  0  0  0  0  0  0
   33.8820   35.8620   22.5210 N   0  0  0  0  0  0  0  0  0  0  0  0
   33.5620   37.8980   23.7330 N   0  0  0  0  0  0  0  0  0  0  0  0
   33.2320   39.9850   24.8730 N   0  0  0  0  0  0  0  0  0  0  0  0
   39.2570   36.7080   17.4230 H   0  0  0  0  0  0  0  0  0  0  0  0
   35.3620   37.9090   19.4800 H   0  0  0  0  0  0  0  0  0  0  0  0
   35.7270   36.4280   14.8920 H   0  0  0  0  0  0  0  0  0  0  0  0
   34.3650   35.6650   16.8270 H   0  0  0  0  0  0  0  0  0  0  0  0
   34.9220   40.0220   20.7680 H   0  0  0  0  0  0  0  0  0  0  0  0
   33.4750   40.9980   24.9140 H   0  0  0  0  0  0  0  0  0  0  0  0
   38.2540   37.0610   15.0360 F   0  0  0  0  0  0  0  0  0  0  0  0
   33.3750   38.2640   28.3160 C   0  0  0  0  0  0  0  0  0  0  0  0
   33.9030   38.7130   26.9470 C   0  0  0  0  0  0  0  0  0  0  0  0
   32.7800   39.4520   26.1910 C   0  0  0  0  0  0  0  0  0  0  0  0
   31.5330   38.5570   26.0780 C   0  0  0  0  0  0  0  0  0  0  0  0
   31.1090   38.0910   27.4780 C   0  0  0  0  0  0  0  0  0  0  0  0
   32.1910   37.4480   28.1910 O   0  0  0  0  0  0  0  0  0  0  0  0
   33.1430   39.1430   28.9620 H   0  0  0  0  0  0  0  0  0  0  0  0
   34.0900   37.5690   28.8150 H   0  0  0  0  0  0  0  0  0  0  0  0
   34.2370   37.8220   26.3620 H   0  0  0  0  0  0  0  0  0  0  0  0
   34.7780   39.3910   27.0900 H   0  0  0  0  0  0  0  0  0  0  0  0
   32.5030   40.3830   26.7750 H   0  0  0  0  0  0  0  0  0  0  0  0
   30.6980   39.1230   25.6030 H   0  0  0  0  0  0  0  0  0  0  0  0
   31.7580   37.6630   25.4450 H   0  0  0  0  0  0  0  0  0  0  0  0
   30.7360   38.9400   28.0920 H   0  0  0  0  0  0  0  0  0  0  0  0
   30.3560   37.2720   27.4140 H   0  0  0  0  0  0  0  0  0  0  0  0
   33.2280   35.1050   23.6430 C   0  0  0  0  0  0  0  0  0  0  0  0
   33.6810   34.0770   23.6780 H   0  0  0  0  0  0  0  0  0  0  0  0
   33.4460   35.6310   24.6140 H   0  0  0  0  0  0  0  0  0  0  0  0
   31.7090   35.0140   23.4330 C   0  0  0  0  0  0  0  0  0  0  0  0
   31.2800   36.0430   23.3650 H   0  0  0  0  0  0  0  0  0  0  0  0
   31.4810   34.4740   22.4830 H   0  0  0  0  0  0  0  0  0  0  0  0
   31.0190   34.2730   24.5890 C   0  0  0  0  0  0  0  0  0  0  0  0
   31.6580   33.4640   25.0140 H   0  0  0  0  0  0  0  0  0  0  0  0
   30.6890   34.9850   25.3800 H   0  0  0  0  0  0  0  0  0  0  0  0
   29.8730   33.5490   24.1070 O   0  0  0  0  0  0  0  0  0  0  0  0
   29.1660   34.2070   23.8200 H   0  0  0  0  0  0  0  0  0  0  0  0
  1  3  2  0  0  0  0
  1  7  1  0  0  0  0
  1 21  1  0  0  0  0
  2 12  1  0  0  0  0
  2 17  2  0  0  0  0
  2 18  1  0  0  0  0
  3 13  1  0  0  0  0
  3 14  1  0  0  0  0
  4 16  2  0  0  0  0
  4 19  1  0  0  0  0
  4 20  1  0  0  0  0
  5  6  1  0  0  0  0
  5 10  1  0  0  0  0
  5 11  2  0  0  0  0
  6 12  2  0  0  0  0
  6 22  1  0  0  0  0
  7  8  2  0  0  0  0
  7 27  1  0  0  0  0
  8  9  1  0  0  0  0
  8 23  1  0  0  0  0
  9 13  2  0  0  0  0
  9 24  1  0  0  0  0
 10 18  1  0  0  0  0
 10 19  2  0  0  0  0
 11 16  1  0  0  0  0
 11 25  1  0  0  0  0
 12 15  1  0  0  0  0
 13 15  1  0  0  0  0
 18 43  1  0  0  0  0
 20 26  1  0  0  0  0
 20 30  1  0  0  0  0
 28 29  1  0  0  0  0
 28 33  1  0  0  0  0
 28 34  1  0  0  0  0
 28 35  1  0  0  0  0
 29 30  1  0  0  0  0
 29 36  1  0  0  0  0
 29 37  1  0  0  0  0
 30 31  1  0  0  0  0
 30 38  1  0  0  0  0
 31 32  1  0  0  0  0
 31 39  1  0  0  0  0
 31 40  1  0  0  0  0
 32 33  1  0  0  0  0
 32 41  1  0  0  0  0
 32 42  1  0  0  0  0
 43 44  1  0  0  0  0
 43 45  1  0  0  0  0
 43 46  1  0  0  0  0
 46 47  1  0  0  0  0
 46 48  1  0  0  0  0
 46 49  1  0  0  0  0
 49 50  1  0  0  0  0
 49 51  1  0  0  0  0
 49 52  1  0  0  0  0
 52 53  1  0  0  0  0
M  END
$$$$
