p38a_2r
 OpenBabel02232411163D
Structure written by MMmdl.
 56 59  0  0  0  0  0  0  0  0999 V2000
   38.2410   36.4740   17.2610 C   0  0  0  0  0  0  0  0  0  0  0  0
   34.3320   35.0930   21.3250 C   0  0  0  0  0  0  0  0  0  0  0  0
   37.4800   36.0380   18.3430 C   0  0  0  0  0  0  0  0  0  0  0  0
   33.5940   39.2270   23.7360 C   0  0  0  0  0  0  0  0  0  0  0  0
   34.5590   37.9470   21.4920 C   0  0  0  0  0  0  0  0  0  0  0  0
   35.0690   37.2710   20.3320 C   0  0  0  0  0  0  0  0  0  0  0  0
   37.5700   36.5990   16.0370 C   0  0  0  0  0  0  0  0  0  0  0  0
   36.2190   36.2880   15.8660 C   0  0  0  0  0  0  0  0  0  0  0  0
   35.4800   35.8430   16.9680 C   0  0  0  0  0  0  0  0  0  0  0  0
   33.9760   37.2170   22.5700 C   0  0  0  0  0  0  0  0  0  0  0  0
   34.6150   39.3610   21.6230 C   0  0  0  0  0  0  0  0  0  0  0  0
   34.9780   35.9230   20.2750 C   0  0  0  0  0  0  0  0  0  0  0  0
   36.1170   35.7040   18.2040 C   0  0  0  0  0  0  0  0  0  0  0  0
   38.0410   35.9320   19.5400 F   0  0  0  0  0  0  0  0  0  0  0  0
   35.4310   35.0840   19.2580 O   0  0  0  0  0  0  0  0  0  0  0  0
   34.1680   40.0070   22.7050 N   0  0  0  0  0  0  0  0  0  0  0  0
   34.1670   33.8930   21.2640 O   0  0  0  0  0  0  0  0  0  0  0  0
   33.8700   35.8150   22.4850 N   0  0  0  0  0  0  0  0  0  0  0  0
   33.5030   37.8530   23.6960 N   0  0  0  0  0  0  0  0  0  0  0  0
   33.0530   39.9670   24.7680 N   0  0  0  0  0  0  0  0  0  0  0  0
   39.2960   36.7430   17.3690 H   0  0  0  0  0  0  0  0  0  0  0  0
   35.5130   37.8730   19.5360 H   0  0  0  0  0  0  0  0  0  0  0  0
   35.7300   36.4040   14.8950 H   0  0  0  0  0  0  0  0  0  0  0  0
   34.4130   35.6220   16.8540 H   0  0  0  0  0  0  0  0  0  0  0  0
   35.0390   39.9710   20.8090 H   0  0  0  0  0  0  0  0  0  0  0  0
   33.3280   40.9730   24.8120 H   0  0  0  0  0  0  0  0  0  0  0  0
   38.2490   37.0750   14.9960 F   0  0  0  0  0  0  0  0  0  0  0  0
   33.1800   38.5000   28.3290 C   0  0  0  0  0  0  0  0  0  0  0  0
   33.7290   38.9540   26.9700 C   0  0  0  0  0  0  0  0  0  0  0  0
   32.5720   39.4770   26.0950 C   0  0  0  0  0  0  0  0  0  0  0  0
   31.4530   38.4290   25.9830 C   0  0  0  0  0  0  0  0  0  0  0  0
   31.0120   37.9960   27.3870 C   0  0  0  0  0  0  0  0  0  0  0  0
   32.1240   37.5260   28.1830 O   0  0  0  0  0  0  0  0  0  0  0  0
   32.7940   39.3690   28.9110 H   0  0  0  0  0  0  0  0  0  0  0  0
   33.9480   37.9330   28.9050 H   0  0  0  0  0  0  0  0  0  0  0  0
   34.2330   38.0990   26.4630 H   0  0  0  0  0  0  0  0  0  0  0  0
   34.4810   39.7640   27.1300 H   0  0  0  0  0  0  0  0  0  0  0  0
   32.1470   40.4080   26.5800 H   0  0  0  0  0  0  0  0  0  0  0  0
   30.5840   38.8630   25.4340 H   0  0  0  0  0  0  0  0  0  0  0  0
   31.8210   37.5360   25.4210 H   0  0  0  0  0  0  0  0  0  0  0  0
   30.5140   38.8290   27.9310 H   0  0  0  0  0  0  0  0  0  0  0  0
   30.3600   37.0930   27.3430 H   0  0  0  0  0  0  0  0  0  0  0  0
   33.2040   35.0270   23.5650 C   0  0  0  0  0  0  0  0  0  0  0  0
   32.4650   35.6880   24.0950 H   0  0  0  0  0  0  0  0  0  0  0  0
   32.6350   34.1840   23.0790 H   0  0  0  0  0  0  0  0  0  0  0  0
   34.1840   34.4040   24.6180 C   0  0  0  0  0  0  0  0  0  0  0  0
   33.4570   33.2200   25.0560 O   0  0  0  0  0  0  0  0  0  0  0  0
   33.9750   32.3920   24.8350 H   0  0  0  0  0  0  0  0  0  0  0  0
   34.3460   35.2900   25.8500 C   0  0  0  0  0  0  0  0  0  0  0  0
   33.3570   35.5640   26.2840 H   0  0  0  0  0  0  0  0  0  0  0  0
   34.9330   34.7660   26.6390 H   0  0  0  0  0  0  0  0  0  0  0  0
   34.8750   36.2290   25.5770 H   0  0  0  0  0  0  0  0  0  0  0  0
   35.5320   33.9840   24.0400 C   0  0  0  0  0  0  0  0  0  0  0  0
   36.1130   33.4150   24.8000 H   0  0  0  0  0  0  0  0  0  0  0  0
   35.3890   33.3250   23.1570 H   0  0  0  0  0  0  0  0  0  0  0  0
   36.1200   34.8780   23.7530 H   0  0  0  0  0  0  0  0  0  0  0  0
  1  3  2  0  0  0  0
  1  7  1  0  0  0  0
  1 21  1  0  0  0  0
  2 12  1  0  0  0  0
  2 17  2  0  0  0  0
  2 18  1  0  0  0  0
  3 13  1  0  0  0  0
  3 14  1  0  0  0  0
  4 16  2  0  0  0  0
  4 19  1  0  0  0  0
  4 20  1  0  0  0  0
  5  6  1  0  0  0  0
  5 10  1  0  0  0  0
  5 11  2  0  0  0  0
  6 12  2  0  0  0  0
  6 22  1  0  0  0  0
  7  8  2  0  0  0  0
  7 27  1  0  0  0  0
  8  9  1  0  0  0  0
  8 23  1  0  0  0  0
  9 13  2  0  0  0  0
  9 24  1  0  0  0  0
 10 18  1  0  0  0  0
 10 19  2  0  0  0  0
 11 16  1  0  0  0  0
 11 25  1  0  0  0  0
 12 15  1  0  0  0  0
 13 15  1  0  0  0  0
 18 43  1  0  0  0  0
 20 26  1  0  0  0  0
 20 30  1  0  0  0  0
 28 29  1  0  0  0  0
 28 33  1  0  0  0  0
 28 34  1  0  0  0  0
 28 35  1  0  0  0  0
 29 30  1  0  0  0  0
 29 36  1  0  0  0  0
 29 37  1  0  0  0  0
 30 31  1  0  0  0  0
 30 38  1  0  0  0  0
 31 32  1  0  0  0  0
 31 39  1  0  0  0  0
 31 40  1  0  0  0  0
 32 33  1  0  0  0  0
 32 41  1  0  0  0  0
 32 42  1  0  0  0  0
 43 44  1  0  0  0  0
 43 45  1  0  0  0  0
 43 46  1  0  0  0  0
 46 47  1  0  0  0  0
 46 49  1  0  0  0  0
 46 53  1  0  0  0  0
 47 48  1  0  0  0  0
 49 50  1  0  0  0  0
 49 51  1  0  0  0  0
 49 52  1  0  0  0  0
 53 54  1  0  0  0  0
 53 55  1  0  0  0  0
 53 56  1  0  0  0  0
M  END
$$$$
