57
 OpenBabel02232411163D
Structure written by MMmdl.
 47 50  0  0  0  0  0  0  0  0999 V2000
    3.3430  -48.1300    7.0970 O   0  0  0  0  0  0  0  0  0  0  0  0
    2.9570  -49.0850    6.4060 C   0  0  0  0  0  0  0  0  0  0  0  0
    3.6640  -49.8330    5.7020 O   0  5  0  0  0  0  0  0  0  0  0  0
    1.4540  -49.4260    6.3900 C   0  0  0  0  0  0  0  0  0  0  0  0
   -0.4040  -50.7570    6.5900 C   0  0  0  0  0  0  0  0  0  0  0  0
   -1.3320  -51.7860    6.8390 C   0  0  0  0  0  0  0  0  0  0  0  0
   -2.6570  -51.5490    6.5120 C   0  0  0  0  0  0  0  0  0  0  0  0
   -3.0690  -50.3170    5.9470 C   0  0  0  0  0  0  0  0  0  0  0  0
   -2.1620  -49.2950    5.7060 C   0  0  0  0  0  0  0  0  0  0  0  0
   -0.8090  -49.4920    6.0290 C   0  0  0  0  0  0  0  0  0  0  0  0
    0.3760  -48.6700    5.9350 C   0  0  0  0  0  0  0  0  0  0  0  0
    0.3570  -47.2640    5.4510 C   0  0  0  0  0  0  0  0  0  0  0  0
    0.3230  -46.2330    6.5950 C   0  0  0  0  0  0  0  0  0  0  0  0
   -0.8350  -46.3990    7.5720 C   0  0  0  0  0  0  0  0  0  0  0  0
   -2.0270  -45.8620    6.8810 O   0  0  0  0  0  0  0  0  0  0  0  0
   -3.2030  -45.8650    7.5690 C   0  0  0  0  0  0  0  0  0  0  0  0
   -5.7200  -45.6360    8.8080 C   0  0  0  0  0  0  0  0  0  0  0  0
   -4.7250  -46.3970    9.3710 C   0  0  0  0  0  0  0  0  0  0  0  0
   -3.4490  -46.5150    8.7650 C   0  0  0  0  0  0  0  0  0  0  0  0
   -1.0300  -52.7370    7.2790 H   0  0  0  0  0  0  0  0  0  0  0  0
   -3.4080  -52.3200    6.6920 H   0  0  0  0  0  0  0  0  0  0  0  0
   -4.1230  -50.1810    5.7030 H   0  0  0  0  0  0  0  0  0  0  0  0
   -2.5030  -48.3520    5.2770 H   0  0  0  0  0  0  0  0  0  0  0  0
   -0.5560  -47.1130    4.8200 H   0  0  0  0  0  0  0  0  0  0  0  0
    1.2590  -47.0520    4.8270 H   0  0  0  0  0  0  0  0  0  0  0  0
    1.2650  -46.3260    7.1920 H   0  0  0  0  0  0  0  0  0  0  0  0
    0.2660  -45.2100    6.1560 H   0  0  0  0  0  0  0  0  0  0  0  0
   -0.6990  -45.7620    8.4720 H   0  0  0  0  0  0  0  0  0  0  0  0
   -1.0470  -47.4620    7.8070 H   0  0  0  0  0  0  0  0  0  0  0  0
   -2.7110  -47.1320    9.2660 H   0  0  0  0  0  0  0  0  0  0  0  0
   -5.5020  -44.9830    7.5560 C   0  0  0  0  0  0  0  0  0  0  0  0
   -4.2400  -45.0970    6.9130 C   0  0  0  0  0  0  0  0  0  0  0  0
   -4.0420  -44.4890    5.6410 C   0  0  0  0  0  0  0  0  0  0  0  0
   -5.0530  -43.7780    5.0400 C   0  0  0  0  0  0  0  0  0  0  0  0
   -6.3170  -43.6630    5.6790 C   0  0  0  0  0  0  0  0  0  0  0  0
   -6.5390  -44.2470    6.9030 C   0  0  0  0  0  0  0  0  0  0  0  0
   -3.0820  -44.6190    5.1400 H   0  0  0  0  0  0  0  0  0  0  0  0
   -4.9040  -43.3040    4.0720 H   0  0  0  0  0  0  0  0  0  0  0  0
   -7.1070  -43.1070    5.1790 H   0  0  0  0  0  0  0  0  0  0  0  0
   -7.5120  -44.1670    7.3870 H   0  0  0  0  0  0  0  0  0  0  0  0
   -4.9100  -46.9320   10.3060 H   0  0  0  0  0  0  0  0  0  0  0  0
   -6.6910  -45.5370    9.2920 H   0  0  0  0  0  0  0  0  0  0  0  0
    1.7350  -51.7650    7.4580 C   0  0  0  0  0  0  0  0  0  0  0  0
    1.4830  -52.7640    7.0020 H   0  0  0  0  0  0  0  0  0  0  0  0
    2.8430  -51.6170    7.3790 H   0  0  0  0  0  0  0  0  0  0  0  0
    1.4530  -51.8140    8.5480 H   0  0  0  0  0  0  0  0  0  0  0  0
    0.9880  -50.6960    6.7830 N   0  0  0  0  0  0  0  0  0  0  0  0
  1  2  2  0  0  0  0
  2  3  1  0  0  0  0
  2  4  1  0  0  0  0
  4 11  2  0  0  0  0
  4 47  1  0  0  0  0
  5  6  2  0  0  0  0
  5 10  1  0  0  0  0
  5 47  1  0  0  0  0
  6  7  1  0  0  0  0
  6 20  1  0  0  0  0
  7  8  2  0  0  0  0
  7 21  1  0  0  0  0
  8  9  1  0  0  0  0
  8 22  1  0  0  0  0
  9 10  2  0  0  0  0
  9 23  1  0  0  0  0
 10 11  1  0  0  0  0
 11 12  1  0  0  0  0
 12 24  1  0  0  0  0
 12 25  1  0  0  0  0
 12 13  1  0  0  0  0
 13 14  1  0  0  0  0
 13 26  1  0  0  0  0
 13 27  1  0  0  0  0
 14 15  1  0  0  0  0
 14 28  1  0  0  0  0
 14 29  1  0  0  0  0
 15 16  1  0  0  0  0
 16 19  2  0  0  0  0
 16 32  1  0  0  0  0
 17 18  2  0  0  0  0
 17 31  1  0  0  0  0
 17 42  1  0  0  0  0
 18 19  1  0  0  0  0
 18 41  1  0  0  0  0
 19 30  1  0  0  0  0
 31 32  2  0  0  0  0
 31 36  1  0  0  0  0
 32 33  1  0  0  0  0
 33 34  2  0  0  0  0
 33 37  1  0  0  0  0
 34 35  1  0  0  0  0
 34 38  1  0  0  0  0
 35 36  2  0  0  0  0
 35 39  1  0  0  0  0
 36 40  1  0  0  0  0
 43 44  1  0  0  0  0
 43 45  1  0  0  0  0
 43 46  1  0  0  0  0
 43 47  1  0  0  0  0
M  CHG  1   3  -1
M  END
$$$$
