p38a_2o
 OpenBabel02232411163D
Structure written by MMmdl.
 55 58  0  0  0  0  0  0  0  0999 V2000
   38.3120   36.5600   17.1500 C   0  0  0  0  0  0  0  0  0  0  0  0
   34.3760   35.0700   21.1420 C   0  0  0  0  0  0  0  0  0  0  0  0
   37.5530   36.0940   18.2200 C   0  0  0  0  0  0  0  0  0  0  0  0
   33.8190   39.1330   23.7040 C   0  0  0  0  0  0  0  0  0  0  0  0
   34.5670   37.9340   21.3400 C   0  0  0  0  0  0  0  0  0  0  0  0
   35.0740   37.2750   20.1690 C   0  0  0  0  0  0  0  0  0  0  0  0
   37.6430   36.7010   15.9260 C   0  0  0  0  0  0  0  0  0  0  0  0
   36.2970   36.3780   15.7410 C   0  0  0  0  0  0  0  0  0  0  0  0
   35.5600   35.8950   16.8280 C   0  0  0  0  0  0  0  0  0  0  0  0
   34.0110   37.1750   22.4100 C   0  0  0  0  0  0  0  0  0  0  0  0
   34.6090   39.3470   21.5060 C   0  0  0  0  0  0  0  0  0  0  0  0
   35.0210   35.9250   20.1120 C   0  0  0  0  0  0  0  0  0  0  0  0
   36.1960   35.7420   18.0640 C   0  0  0  0  0  0  0  0  0  0  0  0
   38.1030   35.9800   19.4210 F   0  0  0  0  0  0  0  0  0  0  0  0
   35.5160   35.0960   19.1060 O   0  0  0  0  0  0  0  0  0  0  0  0
   34.2500   39.9570   22.6430 N   0  0  0  0  0  0  0  0  0  0  0  0
   34.2850   33.8620   21.0840 O   0  0  0  0  0  0  0  0  0  0  0  0
   33.8170   35.7840   22.2620 N   0  0  0  0  0  0  0  0  0  0  0  0
   33.6630   37.7610   23.5990 N   0  0  0  0  0  0  0  0  0  0  0  0
   33.4890   39.7550   24.8830 N   0  0  0  0  0  0  0  0  0  0  0  0
   39.3620   36.8400   17.2690 H   0  0  0  0  0  0  0  0  0  0  0  0
   35.5010   37.8890   19.3730 H   0  0  0  0  0  0  0  0  0  0  0  0
   35.8080   36.5090   14.7730 H   0  0  0  0  0  0  0  0  0  0  0  0
   34.4980   35.6570   16.7070 H   0  0  0  0  0  0  0  0  0  0  0  0
   34.9500   39.9830   20.6730 H   0  0  0  0  0  0  0  0  0  0  0  0
   33.6540   40.7790   24.9770 H   0  0  0  0  0  0  0  0  0  0  0  0
   38.3170   37.2090   14.8970 F   0  0  0  0  0  0  0  0  0  0  0  0
   32.1650   39.0390   28.3940 C   0  0  0  0  0  0  0  0  0  0  0  0
   32.2290   39.6730   26.9990 C   0  0  0  0  0  0  0  0  0  0  0  0
   33.3530   39.0130   26.1750 C   0  0  0  0  0  0  0  0  0  0  0  0
   34.6920   39.0750   26.9440 C   0  0  0  0  0  0  0  0  0  0  0  0
   34.5200   38.4840   28.3500 C   0  0  0  0  0  0  0  0  0  0  0  0
   33.4400   39.1160   29.0720 O   0  0  0  0  0  0  0  0  0  0  0  0
   31.8490   37.9730   28.3330 H   0  0  0  0  0  0  0  0  0  0  0  0
   31.5050   39.6260   29.0730 H   0  0  0  0  0  0  0  0  0  0  0  0
   32.4270   40.7680   27.0930 H   0  0  0  0  0  0  0  0  0  0  0  0
   31.2520   39.5350   26.4750 H   0  0  0  0  0  0  0  0  0  0  0  0
   33.0820   37.9420   25.9580 H   0  0  0  0  0  0  0  0  0  0  0  0
   35.4720   38.4970   26.3940 H   0  0  0  0  0  0  0  0  0  0  0  0
   35.0320   40.1370   27.0190 H   0  0  0  0  0  0  0  0  0  0  0  0
   34.3310   37.3870   28.2980 H   0  0  0  0  0  0  0  0  0  0  0  0
   35.4020   38.7190   28.9920 H   0  0  0  0  0  0  0  0  0  0  0  0
   32.9330   35.0360   23.2230 C   0  0  0  0  0  0  0  0  0  0  0  0
   32.1210   35.7430   23.5610 H   0  0  0  0  0  0  0  0  0  0  0  0
   32.4680   34.1910   22.6370 H   0  0  0  0  0  0  0  0  0  0  0  0
   33.6910   34.4830   24.4310 C   0  0  0  0  0  0  0  0  0  0  0  0
   34.4830   33.7680   24.0810 H   0  0  0  0  0  0  0  0  0  0  0  0
   34.2320   35.3330   24.9360 H   0  0  0  0  0  0  0  0  0  0  0  0
   32.6520   33.6790   25.6240 S   0  0  0  0  0  0  0  0  0  0  0  0
   31.6800   34.6220   26.2050 O   0  0  0  0  0  0  0  0  0  0  0  0
   33.5130   33.0740   26.6660 O   0  0  0  0  0  0  0  0  0  0  0  0
   31.8060   32.4330   24.7590 C   0  0  0  0  0  0  0  0  0  0  0  0
   32.4970   31.7380   24.2160 H   0  0  0  0  0  0  0  0  0  0  0  0
   31.1960   31.7870   25.4460 H   0  0  0  0  0  0  0  0  0  0  0  0
   31.0840   32.8380   24.0030 H   0  0  0  0  0  0  0  0  0  0  0  0
  1  3  2  0  0  0  0
  1  7  1  0  0  0  0
  1 21  1  0  0  0  0
  2 12  1  0  0  0  0
  2 17  2  0  0  0  0
  2 18  1  0  0  0  0
  3 13  1  0  0  0  0
  3 14  1  0  0  0  0
  4 16  2  0  0  0  0
  4 19  1  0  0  0  0
  4 20  1  0  0  0  0
  5  6  1  0  0  0  0
  5 10  1  0  0  0  0
  5 11  2  0  0  0  0
  6 12  2  0  0  0  0
  6 22  1  0  0  0  0
  7  8  2  0  0  0  0
  7 27  1  0  0  0  0
  8  9  1  0  0  0  0
  8 23  1  0  0  0  0
  9 13  2  0  0  0  0
  9 24  1  0  0  0  0
 10 18  1  0  0  0  0
 10 19  2  0  0  0  0
 11 16  1  0  0  0  0
 11 25  1  0  0  0  0
 12 15  1  0  0  0  0
 13 15  1  0  0  0  0
 18 43  1  0  0  0  0
 20 26  1  0  0  0  0
 20 30  1  0  0  0  0
 28 29  1  0  0  0  0
 28 33  1  0  0  0  0
 28 34  1  0  0  0  0
 28 35  1  0  0  0  0
 29 30  1  0  0  0  0
 29 36  1  0  0  0  0
 29 37  1  0  0  0  0
 30 31  1  0  0  0  0
 30 38  1  0  0  0  0
 31 32  1  0  0  0  0
 31 39  1  0  0  0  0
 31 40  1  0  0  0  0
 32 33  1  0  0  0  0
 32 41  1  0  0  0  0
 32 42  1  0  0  0  0
 43 44  1  0  0  0  0
 43 45  1  0  0  0  0
 43 46  1  0  0  0  0
 46 47  1  0  0  0  0
 46 48  1  0  0  0  0
 46 49  1  0  0  0  0
 49 50  2  0  0  0  0
 49 51  2  0  0  0  0
 49 52  1  0  0  0  0
 52 53  1  0  0  0  0
 52 54  1  0  0  0  0
 52 55  1  0  0  0  0
M  END
$$$$
