18658-1
 OpenBabel02232411163D
Structure written by MMmdl.
 47 48  0  0  0  0  0  0  0  0999 V2000
   24.7100   12.8100   30.6020 O   0  0  0  0  0  0  0  0  0  0  0  0
   24.4440   11.4020   30.5030 C   0  0  0  0  0  0  0  0  0  0  0  0
   23.0460   11.1440   29.9350 C   0  0  0  0  0  0  0  0  0  0  0  0
   22.0610   11.2150   31.0260 O   0  0  0  0  0  0  0  0  0  0  0  0
   21.4970   10.0650   31.4770 C   0  0  0  0  0  0  0  0  0  0  0  0
   21.9760    8.8740   31.0540 N   0  0  0  0  0  0  0  0  0  0  0  0
   21.2890    7.7310   31.4440 C   0  0  0  0  0  0  0  0  0  0  0  0
   20.1650    7.7770   32.2640 C   0  0  0  0  0  0  0  0  0  0  0  0
   19.6860    9.0330   32.7240 C   0  0  0  0  0  0  0  0  0  0  0  0
   18.5540    9.0830   33.4970 N   0  0  0  0  0  0  0  0  0  0  0  0
   20.3760   10.2300   32.3420 C   0  0  0  0  0  0  0  0  0  0  0  0
   19.9840   11.5300   32.7230 C   0  0  0  0  0  0  0  0  0  0  0  0
   19.7150   12.6250   33.0000 N   0  0  0  0  0  0  0  0  0  0  0  0
   21.8570    6.5630   30.8920 N   0  0  0  0  0  0  0  0  0  0  0  0
   21.2910    5.2660   30.8820 C   0  0  0  0  0  0  0  0  0  0  0  0
   20.2350    5.0080   31.4180 O   0  0  0  0  0  0  0  0  0  0  0  0
   22.1010    4.2620   30.0740 C   0  0  0  0  0  0  0  0  0  0  0  0
   23.4410    3.9730   30.6830 C   0  0  0  0  0  0  0  0  0  0  0  0
   24.5620    4.8040   30.3880 C   0  0  0  0  0  0  0  0  0  0  0  0
   24.2530    5.8310   29.5030 O   0  0  0  0  0  0  0  0  0  0  0  0
   25.2580    6.8590   29.2950 C   0  0  0  0  0  0  0  0  0  0  0  0
   25.8170    4.5600   30.9330 C   0  0  0  0  0  0  0  0  0  0  0  0
   25.9960    3.4760   31.8060 C   0  0  0  0  0  0  0  0  0  0  0  0
   24.9060    2.6570   32.0960 C   0  0  0  0  0  0  0  0  0  0  0  0
   23.6290    2.8880   31.5280 C   0  0  0  0  0  0  0  0  0  0  0  0
   24.9140    1.5600   32.9340 O   0  0  0  0  0  0  0  0  0  0  0  0
   26.1710    1.2080   33.5660 C   0  0  0  0  0  0  0  0  0  0  0  0
   24.8500   13.1780   29.6910 H   0  0  0  0  0  0  0  0  0  0  0  0
   25.2200   10.9140   29.8600 H   0  0  0  0  0  0  0  0  0  0  0  0
   24.5290   11.0490   31.5580 H   0  0  0  0  0  0  0  0  0  0  0  0
   22.7030   11.9770   29.2750 H   0  0  0  0  0  0  0  0  0  0  0  0
   23.0020   10.1660   29.3990 H   0  0  0  0  0  0  0  0  0  0  0  0
   19.6340    6.8650   32.5430 H   0  0  0  0  0  0  0  0  0  0  0  0
   18.0600    8.2160   33.7820 H   0  0  0  0  0  0  0  0  0  0  0  0
   18.1580    9.9730   33.8010 H   0  0  0  0  0  0  0  0  0  0  0  0
   22.7650    6.7090   30.3800 H   0  0  0  0  0  0  0  0  0  0  0  0
   21.5120    3.3120   29.9880 H   0  0  0  0  0  0  0  0  0  0  0  0
   22.2510    4.6810   29.0400 H   0  0  0  0  0  0  0  0  0  0  0  0
   26.1180    6.4280   28.7380 H   0  0  0  0  0  0  0  0  0  0  0  0
   24.7000    7.5970   28.6750 H   0  0  0  0  0  0  0  0  0  0  0  0
   25.5720    7.3040   30.2640 H   0  0  0  0  0  0  0  0  0  0  0  0
   26.6800    5.1890   30.6970 H   0  0  0  0  0  0  0  0  0  0  0  0
   26.9880    3.3050   32.2280 H   0  0  0  0  0  0  0  0  0  0  0  0
   22.8140    2.1980   31.7620 H   0  0  0  0  0  0  0  0  0  0  0  0
   25.8850    0.3040   34.1540 H   0  0  0  0  0  0  0  0  0  0  0  0
   26.5110    2.0310   34.2320 H   0  0  0  0  0  0  0  0  0  0  0  0
   26.9340    0.9590   32.7960 H   0  0  0  0  0  0  0  0  0  0  0  0
  1  2  1  0  0  0  0
  1 28  1  0  0  0  0
  2  3  1  0  0  0  0
  2 29  1  0  0  0  0
  2 30  1  0  0  0  0
  3  4  1  0  0  0  0
  3 31  1  0  0  0  0
  3 32  1  0  0  0  0
  4  5  1  0  0  0  0
  5 11  2  0  0  0  0
  5  6  1  0  0  0  0
  6  7  2  0  0  0  0
  7  8  1  0  0  0  0
  7 14  1  0  0  0  0
  8  9  2  0  0  0  0
  8 33  1  0  0  0  0
  9 10  1  0  0  0  0
  9 11  1  0  0  0  0
 10 34  1  0  0  0  0
 10 35  1  0  0  0  0
 11 12  1  0  0  0  0
 12 13  3  0  0  0  0
 14 15  1  0  0  0  0
 14 36  1  0  0  0  0
 15 16  2  0  0  0  0
 15 17  1  0  0  0  0
 17 18  1  0  0  0  0
 17 37  1  0  0  0  0
 17 38  1  0  0  0  0
 18 25  2  0  0  0  0
 18 19  1  0  0  0  0
 19 20  1  0  0  0  0
 19 22  2  0  0  0  0
 20 21  1  0  0  0  0
 21 39  1  0  0  0  0
 21 40  1  0  0  0  0
 21 41  1  0  0  0  0
 22 23  1  0  0  0  0
 22 42  1  0  0  0  0
 23 24  2  0  0  0  0
 23 43  1  0  0  0  0
 24 25  1  0  0  0  0
 24 26  1  0  0  0  0
 25 44  1  0  0  0  0
 26 27  1  0  0  0  0
 27 45  1  0  0  0  0
 27 46  1  0  0  0  0
 27 47  1  0  0  0  0
M  END
$$$$
