ejm_55
 OpenBabel02232411173D
Structure written by MMmdl.
 33 34  0  0  0  0  0  0  0  0999 V2000
   -1.5630   21.5190  -27.5720 C   0  0  0  0  0  0  0  0  0  0  0  0
   -2.8410   21.0160  -27.8320 C   0  0  0  0  0  0  0  0  0  0  0  0
   -3.6110   21.5860  -28.8480 C   0  0  0  0  0  0  0  0  0  0  0  0
   -3.1360   22.6610  -29.6160 C   0  0  0  0  0  0  0  0  0  0  0  0
   -1.8580   23.1520  -29.3200 C   0  0  0  0  0  0  0  0  0  0  0  0
   -1.0680   22.5940  -28.3140 C   0  0  0  0  0  0  0  0  0  0  0  0
   -1.2180   24.4820  -30.1910 Cl  0  0  0  0  0  0  0  0  0  0  0  0
   -3.9900   23.1820  -30.7340 C   0  0  0  0  0  0  0  0  0  0  0  0
   -4.4070   22.4700  -31.6210 O   0  0  0  0  0  0  0  0  0  0  0  0
   -4.2870   24.5580  -30.6260 N   0  0  0  0  0  0  0  0  0  0  0  0
   -5.1430   25.3080  -31.4780 C   0  0  0  0  0  0  0  0  0  0  0  0
   -5.8200   24.7580  -32.5780 C   0  0  0  0  0  0  0  0  0  0  0  0
   -6.6910   25.5780  -33.3080 C   0  0  0  0  0  0  0  0  0  0  0  0
   -6.9060   26.8870  -33.0160 N   0  0  0  0  0  0  0  0  0  0  0  0
   -6.2200   27.4130  -31.9420 C   0  0  0  0  0  0  0  0  0  0  0  0
   -5.3260   26.6720  -31.1590 C   0  0  0  0  0  0  0  0  0  0  0  0
   -6.5310   28.7760  -31.6650 N   0  0  0  0  0  0  0  0  0  0  0  0
   -5.7170   29.6500  -30.9300 C   0  0  0  0  0  0  0  0  0  0  0  0
   -4.7570   29.3870  -30.2420 O   0  0  0  0  0  0  0  0  0  0  0  0
   -5.1690   20.9510  -29.1710 Cl  0  0  0  0  0  0  0  0  0  0  0  0
   -0.9480   21.0730  -26.7820 H   0  0  0  0  0  0  0  0  0  0  0  0
   -3.2210   20.1890  -27.2300 H   0  0  0  0  0  0  0  0  0  0  0  0
   -0.0720   22.9910  -28.0910 H   0  0  0  0  0  0  0  0  0  0  0  0
   -3.8700   25.0790  -29.8320 H   0  0  0  0  0  0  0  0  0  0  0  0
   -5.7010   23.7090  -32.8630 H   0  0  0  0  0  0  0  0  0  0  0  0
   -7.2520   25.1720  -34.1670 H   0  0  0  0  0  0  0  0  0  0  0  0
   -4.7900   27.1320  -30.3240 H   0  0  0  0  0  0  0  0  0  0  0  0
   -7.4180   29.1530  -32.0780 H   0  0  0  0  0  0  0  0  0  0  0  0
   -5.7130   31.9730  -30.2520 C   0  0  0  0  0  0  0  0  0  0  0  0
   -6.4520   32.7940  -30.4210 H   0  0  0  0  0  0  0  0  0  0  0  0
   -5.7230   31.6420  -29.1920 H   0  0  0  0  0  0  0  0  0  0  0  0
   -6.2240   30.9260  -31.1250 O   0  0  0  0  0  0  0  0  0  0  0  0
   -4.6880   32.2530  -30.5790 H   0  0  0  0  0  0  0  0  0  0  0  0
  1  2  2  0  0  0  0
  1  6  1  0  0  0  0
  1 21  1  0  0  0  0
  2  3  1  0  0  0  0
  2 22  1  0  0  0  0
  3  4  2  0  0  0  0
  3 20  1  0  0  0  0
  4  5  1  0  0  0  0
  4  8  1  0  0  0  0
  5  6  2  0  0  0  0
  5  7  1  0  0  0  0
  6 23  1  0  0  0  0
  8  9  2  0  0  0  0
  8 10  1  0  0  0  0
 10 11  1  0  0  0  0
 10 24  1  0  0  0  0
 11 12  2  0  0  0  0
 11 16  1  0  0  0  0
 12 13  1  0  0  0  0
 12 25  1  0  0  0  0
 13 14  2  0  0  0  0
 13 26  1  0  0  0  0
 14 15  1  0  0  0  0
 15 16  2  0  0  0  0
 15 17  1  0  0  0  0
 16 27  1  0  0  0  0
 17 18  1  0  0  0  0
 17 28  1  0  0  0  0
 18 19  2  0  0  0  0
 18 32  1  0  0  0  0
 29 30  1  0  0  0  0
 29 31  1  0  0  0  0
 29 32  1  0  0  0  0
 29 33  1  0  0  0  0
M  END
$$$$
