p38a_3flw
 OpenBabel02232411163D
Structure written by MMmdl.
 49 51  0  0  0  0  0  0  0  0999 V2000
   36.3620   36.0730   15.7800 C   0  0  0  0  0  0  0  0  0  0  0  0
   37.6570   36.5730   15.9670 C   0  0  0  0  0  0  0  0  0  0  0  0
   32.8920   39.9080   27.4040 C   0  0  0  0  0  0  0  0  0  0  0  0
   34.2550   40.4620   27.8450 C   0  0  0  0  0  0  0  0  0  0  0  0
   31.6010   38.2600   25.9660 C   0  0  0  0  0  0  0  0  0  0  0  0
   33.9700   34.8830   23.7650 C   0  0  0  0  0  0  0  0  0  0  0  0
   34.4940   35.0770   16.8250 F   0  0  0  0  0  0  0  0  0  0  0  0
   35.7090   35.6000   16.9140 C   0  0  0  0  0  0  0  0  0  0  0  0
   38.2810   37.0970   14.9150 F   0  0  0  0  0  0  0  0  0  0  0  0
   38.3070   36.5830   17.2040 C   0  0  0  0  0  0  0  0  0  0  0  0
   37.6160   36.1390   18.3370 C   0  0  0  0  0  0  0  0  0  0  0  0
   36.3170   35.6470   18.1870 C   0  0  0  0  0  0  0  0  0  0  0  0
   35.5950   35.0360   19.2180 O   0  0  0  0  0  0  0  0  0  0  0  0
   35.1800   35.8650   20.2580 C   0  0  0  0  0  0  0  0  0  0  0  0
   35.2190   37.2150   20.3230 C   0  0  0  0  0  0  0  0  0  0  0  0
   34.7430   37.8620   21.5170 C   0  0  0  0  0  0  0  0  0  0  0  0
   34.6600   39.2730   21.6570 C   0  0  0  0  0  0  0  0  0  0  0  0
   34.2350   39.8750   22.7790 N   0  0  0  0  0  0  0  0  0  0  0  0
   34.6190   34.9940   21.3280 C   0  0  0  0  0  0  0  0  0  0  0  0
   34.4090   33.8050   21.2280 O   0  0  0  0  0  0  0  0  0  0  0  0
   34.3220   35.6800   22.5570 N   0  0  0  0  0  0  0  0  0  0  0  0
   34.3350   37.0810   22.6400 C   0  0  0  0  0  0  0  0  0  0  0  0
   33.9200   37.6620   23.8120 N   0  0  0  0  0  0  0  0  0  0  0  0
   33.8720   39.0420   23.8590 C   0  0  0  0  0  0  0  0  0  0  0  0
   33.4530   39.6580   25.0140 N   0  0  0  0  0  0  0  0  0  0  0  0
   32.9790   38.9150   26.2250 C   0  0  0  0  0  0  0  0  0  0  0  0
   31.2200   37.2820   27.0870 C   0  0  0  0  0  0  0  0  0  0  0  0
   30.4360   36.2130   26.5140 O   0  0  0  0  0  0  0  0  0  0  0  0
   34.1190   41.2350   29.0530 O   0  0  0  0  0  0  0  0  0  0  0  0
   35.8820   36.0770   14.7990 H   0  0  0  0  0  0  0  0  0  0  0  0
   32.4240   39.3830   28.2720 H   0  0  0  0  0  0  0  0  0  0  0  0
   32.2350   40.7630   27.1210 H   0  0  0  0  0  0  0  0  0  0  0  0
   34.9570   39.6480   28.1370 H   0  0  0  0  0  0  0  0  0  0  0  0
   34.6900   41.1240   27.0620 H   0  0  0  0  0  0  0  0  0  0  0  0
   30.8200   39.0460   25.8600 H   0  0  0  0  0  0  0  0  0  0  0  0
   31.6410   37.6760   25.0120 H   0  0  0  0  0  0  0  0  0  0  0  0
   32.9230   35.1210   24.0950 H   0  0  0  0  0  0  0  0  0  0  0  0
   34.0500   33.7870   23.5440 H   0  0  0  0  0  0  0  0  0  0  0  0
   34.6720   35.1410   24.6040 H   0  0  0  0  0  0  0  0  0  0  0  0
   39.3280   36.9610   17.2980 H   0  0  0  0  0  0  0  0  0  0  0  0
   38.0890   36.2020   19.3200 H   0  0  0  0  0  0  0  0  0  0  0  0
   35.6020   37.8430   19.5150 H   0  0  0  0  0  0  0  0  0  0  0  0
   34.9410   39.9270   20.8150 H   0  0  0  0  0  0  0  0  0  0  0  0
   33.3740   40.6920   25.0450 H   0  0  0  0  0  0  0  0  0  0  0  0
   33.7380   38.1180   26.4620 H   0  0  0  0  0  0  0  0  0  0  0  0
   32.1200   36.7690   27.5030 H   0  0  0  0  0  0  0  0  0  0  0  0
   30.6350   37.7850   27.8870 H   0  0  0  0  0  0  0  0  0  0  0  0
   29.4920   36.2780   26.9020 H   0  0  0  0  0  0  0  0  0  0  0  0
   33.3840   41.9120   28.9090 H   0  0  0  0  0  0  0  0  0  0  0  0
  1  2  2  0  0  0  0
  1  8  1  0  0  0  0
  1 30  1  0  0  0  0
  2  9  1  0  0  0  0
  2 10  1  0  0  0  0
  3  4  1  0  0  0  0
  3 26  1  0  0  0  0
  3 31  1  0  0  0  0
  3 32  1  0  0  0  0
  4 29  1  0  0  0  0
  4 33  1  0  0  0  0
  4 34  1  0  0  0  0
  5 26  1  0  0  0  0
  5 27  1  0  0  0  0
  5 35  1  0  0  0  0
  5 36  1  0  0  0  0
  6 21  1  0  0  0  0
  6 37  1  0  0  0  0
  6 38  1  0  0  0  0
  6 39  1  0  0  0  0
  7  8  1  0  0  0  0
  8 12  2  0  0  0  0
 10 11  2  0  0  0  0
 10 40  1  0  0  0  0
 11 12  1  0  0  0  0
 11 41  1  0  0  0  0
 12 13  1  0  0  0  0
 13 14  1  0  0  0  0
 14 15  2  0  0  0  0
 14 19  1  0  0  0  0
 15 16  1  0  0  0  0
 15 42  1  0  0  0  0
 16 17  2  0  0  0  0
 16 22  1  0  0  0  0
 17 18  1  0  0  0  0
 17 43  1  0  0  0  0
 18 24  2  0  0  0  0
 19 20  2  0  0  0  0
 19 21  1  0  0  0  0
 21 22  1  0  0  0  0
 22 23  2  0  0  0  0
 23 24  1  0  0  0  0
 24 25  1  0  0  0  0
 25 26  1  0  0  0  0
 25 44  1  0  0  0  0
 26 45  1  0  0  0  0
 27 28  1  0  0  0  0
 27 46  1  0  0  0  0
 27 47  1  0  0  0  0
 28 48  1  0  0  0  0
 29 49  1  0  0  0  0
M  END
$$$$
