18624-1
 OpenBabel02232411163D
Structure written by MMmdl.
 38 39  0  0  0  0  0  0  0  0999 V2000
   23.2220   10.8610   29.0590 C   0  0  0  0  0  0  0  0  0  0  0  0
   23.4910   11.0710   30.5340 C   0  0  0  0  0  0  0  0  0  0  0  0
   22.2220   11.1430   31.2880 O   0  0  0  0  0  0  0  0  0  0  0  0
   21.5750   10.0040   31.6160 C   0  0  0  0  0  0  0  0  0  0  0  0
   22.0450    8.8140   31.1790 N   0  0  0  0  0  0  0  0  0  0  0  0
   21.3110    7.6800   31.4880 C   0  0  0  0  0  0  0  0  0  0  0  0
   20.1520    7.7200   32.2560 C   0  0  0  0  0  0  0  0  0  0  0  0
   19.6730    8.9730   32.7270 C   0  0  0  0  0  0  0  0  0  0  0  0
   18.5180    9.0240   33.4660 N   0  0  0  0  0  0  0  0  0  0  0  0
   20.3940   10.1660   32.4010 C   0  0  0  0  0  0  0  0  0  0  0  0
   19.9950   11.4660   32.7780 C   0  0  0  0  0  0  0  0  0  0  0  0
   19.7190   12.5610   33.0460 N   0  0  0  0  0  0  0  0  0  0  0  0
   21.8840    6.5220   30.9100 N   0  0  0  0  0  0  0  0  0  0  0  0
   21.3250    5.2190   30.8720 C   0  0  0  0  0  0  0  0  0  0  0  0
   20.2790    4.9470   31.4180 O   0  0  0  0  0  0  0  0  0  0  0  0
   22.1370    4.2410   30.0360 C   0  0  0  0  0  0  0  0  0  0  0  0
   23.4360    3.8650   30.6980 C   0  0  0  0  0  0  0  0  0  0  0  0
   24.5990    4.6120   30.4520 C   0  0  0  0  0  0  0  0  0  0  0  0
   25.7960    4.2780   31.0910 C   0  0  0  0  0  0  0  0  0  0  0  0
   25.8450    3.1930   31.9720 C   0  0  0  0  0  0  0  0  0  0  0  0
   24.6950    2.4320   32.1990 C   0  0  0  0  0  0  0  0  0  0  0  0
   23.4950    2.7590   31.5590 C   0  0  0  0  0  0  0  0  0  0  0  0
   22.8650    9.8250   28.8540 H   0  0  0  0  0  0  0  0  0  0  0  0
   22.4650   11.5820   28.6770 H   0  0  0  0  0  0  0  0  0  0  0  0
   24.1690   11.0180   28.4860 H   0  0  0  0  0  0  0  0  0  0  0  0
   23.8820   12.0950   30.7500 H   0  0  0  0  0  0  0  0  0  0  0  0
   24.1370   10.2740   30.9650 H   0  0  0  0  0  0  0  0  0  0  0  0
   19.5940    6.8100   32.4870 H   0  0  0  0  0  0  0  0  0  0  0  0
   18.0200    8.1570   33.7460 H   0  0  0  0  0  0  0  0  0  0  0  0
   18.1300    9.9120   33.7840 H   0  0  0  0  0  0  0  0  0  0  0  0
   22.7870    6.6830   30.4210 H   0  0  0  0  0  0  0  0  0  0  0  0
   21.5190    3.3200   29.8700 H   0  0  0  0  0  0  0  0  0  0  0  0
   22.3410    4.7040   29.0350 H   0  0  0  0  0  0  0  0  0  0  0  0
   24.5920    5.4530   29.7540 H   0  0  0  0  0  0  0  0  0  0  0  0
   26.6980    4.8660   30.8970 H   0  0  0  0  0  0  0  0  0  0  0  0
   26.7820    2.9380   32.4750 H   0  0  0  0  0  0  0  0  0  0  0  0
   24.7350    1.5730   32.8760 H   0  0  0  0  0  0  0  0  0  0  0  0
   22.6130    2.1400   31.7330 H   0  0  0  0  0  0  0  0  0  0  0  0
  1  2  1  0  0  0  0
  1 23  1  0  0  0  0
  1 24  1  0  0  0  0
  1 25  1  0  0  0  0
  2  3  1  0  0  0  0
  2 26  1  0  0  0  0
  2 27  1  0  0  0  0
  3  4  1  0  0  0  0
  4 10  2  0  0  0  0
  4  5  1  0  0  0  0
  5  6  2  0  0  0  0
  6  7  1  0  0  0  0
  6 13  1  0  0  0  0
  7  8  2  0  0  0  0
  7 28  1  0  0  0  0
  8  9  1  0  0  0  0
  8 10  1  0  0  0  0
  9 29  1  0  0  0  0
  9 30  1  0  0  0  0
 10 11  1  0  0  0  0
 11 12  3  0  0  0  0
 13 14  1  0  0  0  0
 13 31  1  0  0  0  0
 14 15  2  0  0  0  0
 14 16  1  0  0  0  0
 16 17  1  0  0  0  0
 16 32  1  0  0  0  0
 16 33  1  0  0  0  0
 17 22  2  0  0  0  0
 17 18  1  0  0  0  0
 18 19  2  0  0  0  0
 18 34  1  0  0  0  0
 19 20  1  0  0  0  0
 19 35  1  0  0  0  0
 20 21  2  0  0  0  0
 20 36  1  0  0  0  0
 21 22  1  0  0  0  0
 21 37  1  0  0  0  0
 22 38  1  0  0  0  0
M  END
$$$$
