18635-1
 OpenBabel02232411163D
Structure written by MMmdl.
 44 45  0  0  0  0  0  0  0  0999 V2000
   23.7930   12.6350   30.3650 C   0  0  0  0  0  0  0  0  0  0  0  0
   23.3750   11.1810   30.4800 C   0  0  0  0  0  0  0  0  0  0  0  0
   22.1300   11.2550   31.2870 O   0  0  0  0  0  0  0  0  0  0  0  0
   21.5110   10.1050   31.6250 C   0  0  0  0  0  0  0  0  0  0  0  0
   22.0090    8.9230   31.1920 N   0  0  0  0  0  0  0  0  0  0  0  0
   21.2980    7.7730   31.5100 C   0  0  0  0  0  0  0  0  0  0  0  0
   20.1380    7.7940   32.2770 C   0  0  0  0  0  0  0  0  0  0  0  0
   19.6300    9.0390   32.7370 C   0  0  0  0  0  0  0  0  0  0  0  0
   18.4780    9.0720   33.4800 N   0  0  0  0  0  0  0  0  0  0  0  0
   20.3210   10.2460   32.4010 C   0  0  0  0  0  0  0  0  0  0  0  0
   19.8830   11.5400   32.7520 C   0  0  0  0  0  0  0  0  0  0  0  0
   19.5710   12.6310   32.9960 N   0  0  0  0  0  0  0  0  0  0  0  0
   21.8950    6.6240   30.9420 N   0  0  0  0  0  0  0  0  0  0  0  0
   21.3570    5.3130   30.8840 C   0  0  0  0  0  0  0  0  0  0  0  0
   20.3150    5.0120   31.4260 O   0  0  0  0  0  0  0  0  0  0  0  0
   22.1810    4.3600   30.0300 C   0  0  0  0  0  0  0  0  0  0  0  0
   23.5050    4.0280   30.6700 C   0  0  0  0  0  0  0  0  0  0  0  0
   24.7090    4.6820   30.3520 C   0  0  0  0  0  0  0  0  0  0  0  0
   24.8590    5.7400   29.3030 C   0  0  0  0  0  0  0  0  0  0  0  0
   25.8770    4.3250   31.0570 C   0  0  0  0  0  0  0  0  0  0  0  0
   25.8630    3.3410   32.0370 C   0  0  0  0  0  0  0  0  0  0  0  0
   24.6680    2.6600   32.3340 C   0  0  0  0  0  0  0  0  0  0  0  0
   24.6590    1.5940   33.3810 C   0  0  0  0  0  0  0  0  0  0  0  0
   23.5060    3.0070   31.6390 C   0  0  0  0  0  0  0  0  0  0  0  0
   24.0270   13.0710   31.3620 H   0  0  0  0  0  0  0  0  0  0  0  0
   22.9930   13.2440   29.8840 H   0  0  0  0  0  0  0  0  0  0  0  0
   24.7090   12.6950   29.7250 H   0  0  0  0  0  0  0  0  0  0  0  0
   23.1120   10.7350   29.4950 H   0  0  0  0  0  0  0  0  0  0  0  0
   24.1150   10.5650   31.0380 H   0  0  0  0  0  0  0  0  0  0  0  0
   19.6030    6.8740   32.5180 H   0  0  0  0  0  0  0  0  0  0  0  0
   17.9870    8.1990   33.7530 H   0  0  0  0  0  0  0  0  0  0  0  0
   18.0680    9.9550   33.7850 H   0  0  0  0  0  0  0  0  0  0  0  0
   22.8110    6.7980   30.4830 H   0  0  0  0  0  0  0  0  0  0  0  0
   21.5920    3.4130   29.8950 H   0  0  0  0  0  0  0  0  0  0  0  0
   22.3200    4.8100   29.0160 H   0  0  0  0  0  0  0  0  0  0  0  0
   25.1230    6.7180   29.7860 H   0  0  0  0  0  0  0  0  0  0  0  0
   25.7100    5.4750   28.6220 H   0  0  0  0  0  0  0  0  0  0  0  0
   23.9610    5.8880   28.6730 H   0  0  0  0  0  0  0  0  0  0  0  0
   26.8180    4.8360   30.8260 H   0  0  0  0  0  0  0  0  0  0  0  0
   26.7840    3.0920   32.5720 H   0  0  0  0  0  0  0  0  0  0  0  0
   23.7110    1.0050   33.3740 H   0  0  0  0  0  0  0  0  0  0  0  0
   25.5060    0.8810   33.2240 H   0  0  0  0  0  0  0  0  0  0  0  0
   24.7780    2.0530   34.3940 H   0  0  0  0  0  0  0  0  0  0  0  0
   22.5830    2.4620   31.8470 H   0  0  0  0  0  0  0  0  0  0  0  0
  1  2  1  0  0  0  0
  1 25  1  0  0  0  0
  1 26  1  0  0  0  0
  1 27  1  0  0  0  0
  2  3  1  0  0  0  0
  2 28  1  0  0  0  0
  2 29  1  0  0  0  0
  3  4  1  0  0  0  0
  4 10  2  0  0  0  0
  4  5  1  0  0  0  0
  5  6  2  0  0  0  0
  6  7  1  0  0  0  0
  6 13  1  0  0  0  0
  7  8  2  0  0  0  0
  7 30  1  0  0  0  0
  8  9  1  0  0  0  0
  8 10  1  0  0  0  0
  9 31  1  0  0  0  0
  9 32  1  0  0  0  0
 10 11  1  0  0  0  0
 11 12  3  0  0  0  0
 13 14  1  0  0  0  0
 13 33  1  0  0  0  0
 14 15  2  0  0  0  0
 14 16  1  0  0  0  0
 16 17  1  0  0  0  0
 16 34  1  0  0  0  0
 16 35  1  0  0  0  0
 17 24  2  0  0  0  0
 17 18  1  0  0  0  0
 18 19  1  0  0  0  0
 18 20  2  0  0  0  0
 19 36  1  0  0  0  0
 19 37  1  0  0  0  0
 19 38  1  0  0  0  0
 20 21  1  0  0  0  0
 20 39  1  0  0  0  0
 21 22  2  0  0  0  0
 21 40  1  0  0  0  0
 22 23  1  0  0  0  0
 22 24  1  0  0  0  0
 23 41  1  0  0  0  0
 23 42  1  0  0  0  0
 23 43  1  0  0  0  0
 24 44  1  0  0  0  0
M  END
$$$$
