p38a_2n
 OpenBabel02232411163D
Structure written by MMmdl.
 53 56  0  0  0  0  0  0  0  0999 V2000
   38.2560   36.5090   17.1940 C   0  0  0  0  0  0  0  0  0  0  0  0
   34.4040   35.0680   21.2070 C   0  0  0  0  0  0  0  0  0  0  0  0
   37.4650   36.0550   18.2460 C   0  0  0  0  0  0  0  0  0  0  0  0
   33.8350   39.1500   23.7450 C   0  0  0  0  0  0  0  0  0  0  0  0
   34.5600   37.9440   21.3750 C   0  0  0  0  0  0  0  0  0  0  0  0
   35.0020   37.2820   20.1770 C   0  0  0  0  0  0  0  0  0  0  0  0
   37.6160   36.6710   15.9580 C   0  0  0  0  0  0  0  0  0  0  0  0
   36.2670   36.3770   15.7450 C   0  0  0  0  0  0  0  0  0  0  0  0
   35.4970   35.9090   16.8150 C   0  0  0  0  0  0  0  0  0  0  0  0
   34.0960   37.1770   22.4840 C   0  0  0  0  0  0  0  0  0  0  0  0
   34.5820   39.3560   21.5330 C   0  0  0  0  0  0  0  0  0  0  0  0
   34.9590   35.9310   20.1280 C   0  0  0  0  0  0  0  0  0  0  0  0
   36.1030   35.7370   18.0630 C   0  0  0  0  0  0  0  0  0  0  0  0
   37.9900   35.9170   19.4560 F   0  0  0  0  0  0  0  0  0  0  0  0
   35.3790   35.1080   19.0850 O   0  0  0  0  0  0  0  0  0  0  0  0
   34.2410   39.9720   22.6750 N   0  0  0  0  0  0  0  0  0  0  0  0
   34.2860   33.8630   21.1490 O   0  0  0  0  0  0  0  0  0  0  0  0
   34.0040   35.7750   22.3960 N   0  0  0  0  0  0  0  0  0  0  0  0
   33.7510   37.7740   23.6680 N   0  0  0  0  0  0  0  0  0  0  0  0
   33.4390   39.7640   24.9130 N   0  0  0  0  0  0  0  0  0  0  0  0
   39.3110   36.7640   17.3330 H   0  0  0  0  0  0  0  0  0  0  0  0
   35.3700   37.8980   19.3530 H   0  0  0  0  0  0  0  0  0  0  0  0
   35.8020   36.5230   14.7670 H   0  0  0  0  0  0  0  0  0  0  0  0
   34.4330   35.6960   16.6690 H   0  0  0  0  0  0  0  0  0  0  0  0
   34.8900   39.9970   20.6900 H   0  0  0  0  0  0  0  0  0  0  0  0
   33.6100   40.7790   25.0430 H   0  0  0  0  0  0  0  0  0  0  0  0
   38.3220   37.1670   14.9450 F   0  0  0  0  0  0  0  0  0  0  0  0
   31.9350   38.9930   28.3380 C   0  0  0  0  0  0  0  0  0  0  0  0
   32.1210   39.7100   26.9950 C   0  0  0  0  0  0  0  0  0  0  0  0
   33.2010   38.9840   26.1670 C   0  0  0  0  0  0  0  0  0  0  0  0
   34.5070   38.8530   26.9810 C   0  0  0  0  0  0  0  0  0  0  0  0
   34.2100   38.1860   28.3300 C   0  0  0  0  0  0  0  0  0  0  0  0
   33.1820   38.8930   29.0620 O   0  0  0  0  0  0  0  0  0  0  0  0
   31.5180   37.9690   28.1870 H   0  0  0  0  0  0  0  0  0  0  0  0
   31.3040   39.5890   29.0350 H   0  0  0  0  0  0  0  0  0  0  0  0
   32.4260   40.7690   27.1730 H   0  0  0  0  0  0  0  0  0  0  0  0
   31.1590   39.7080   26.4300 H   0  0  0  0  0  0  0  0  0  0  0  0
   32.8230   37.9570   25.8930 H   0  0  0  0  0  0  0  0  0  0  0  0
   35.2420   38.2270   26.4200 H   0  0  0  0  0  0  0  0  0  0  0  0
   34.9560   39.8620   27.1440 H   0  0  0  0  0  0  0  0  0  0  0  0
   33.8870   37.1280   28.1870 H   0  0  0  0  0  0  0  0  0  0  0  0
   35.0840   38.2570   29.0180 H   0  0  0  0  0  0  0  0  0  0  0  0
   33.3770   35.0030   23.5230 C   0  0  0  0  0  0  0  0  0  0  0  0
   33.7970   33.9610   23.5110 H   0  0  0  0  0  0  0  0  0  0  0  0
   33.6510   35.4920   24.5010 H   0  0  0  0  0  0  0  0  0  0  0  0
   31.8470   34.9650   23.3740 C   0  0  0  0  0  0  0  0  0  0  0  0
   31.4530   36.0090   23.3150 H   0  0  0  0  0  0  0  0  0  0  0  0
   31.5630   34.4250   22.4400 H   0  0  0  0  0  0  0  0  0  0  0  0
   31.1830   34.2590   24.5680 C   0  0  0  0  0  0  0  0  0  0  0  0
   31.8150   33.4340   24.9740 H   0  0  0  0  0  0  0  0  0  0  0  0
   30.9190   34.9880   25.3690 H   0  0  0  0  0  0  0  0  0  0  0  0
   29.9930   33.5700   24.1460 O   0  0  0  0  0  0  0  0  0  0  0  0
   29.3010   34.2390   23.8610 H   0  0  0  0  0  0  0  0  0  0  0  0
  1  3  2  0  0  0  0
  1  7  1  0  0  0  0
  1 21  1  0  0  0  0
  2 12  1  0  0  0  0
  2 17  2  0  0  0  0
  2 18  1  0  0  0  0
  3 13  1  0  0  0  0
  3 14  1  0  0  0  0
  4 16  2  0  0  0  0
  4 19  1  0  0  0  0
  4 20  1  0  0  0  0
  5  6  1  0  0  0  0
  5 10  1  0  0  0  0
  5 11  2  0  0  0  0
  6 12  2  0  0  0  0
  6 22  1  0  0  0  0
  7  8  2  0  0  0  0
  7 27  1  0  0  0  0
  8  9  1  0  0  0  0
  8 23  1  0  0  0  0
  9 13  2  0  0  0  0
  9 24  1  0  0  0  0
 10 18  1  0  0  0  0
 10 19  2  0  0  0  0
 11 16  1  0  0  0  0
 11 25  1  0  0  0  0
 12 15  1  0  0  0  0
 13 15  1  0  0  0  0
 18 43  1  0  0  0  0
 20 26  1  0  0  0  0
 20 30  1  0  0  0  0
 28 29  1  0  0  0  0
 28 33  1  0  0  0  0
 28 34  1  0  0  0  0
 28 35  1  0  0  0  0
 29 30  1  0  0  0  0
 29 36  1  0  0  0  0
 29 37  1  0  0  0  0
 30 31  1  0  0  0  0
 30 38  1  0  0  0  0
 31 32  1  0  0  0  0
 31 39  1  0  0  0  0
 31 40  1  0  0  0  0
 32 33  1  0  0  0  0
 32 41  1  0  0  0  0
 32 42  1  0  0  0  0
 43 44  1  0  0  0  0
 43 45  1  0  0  0  0
 43 46  1  0  0  0  0
 46 47  1  0  0  0  0
 46 48  1  0  0  0  0
 46 49  1  0  0  0  0
 49 50  1  0  0  0  0
 49 51  1  0  0  0  0
 49 52  1  0  0  0  0
 52 53  1  0  0  0  0
M  END
$$$$
