3b
 OpenBabel02232411173D

 58 60  0  0  1  0  0  0  0  0999 V2000
   18.0620  -13.0460   21.4930 N   0  0  0  0  0  0  0  0  0  0  0  0
   17.8100  -11.6860   20.9260 C   0  0  2  0  0  0  0  0  0  0  0  0
   17.1970  -13.6060   22.3960 C   0  0  0  0  0  0  0  0  0  0  0  0
   16.1820  -13.0100   22.7480 O   0  0  0  0  0  0  0  0  0  0  0  0
   16.3790  -11.5700   20.3260 C   0  0  0  0  0  0  0  0  0  0  0  0
   15.8440  -12.4500   19.6690 O   0  0  0  0  0  0  0  0  0  0  0  0
   18.8890  -11.4910   19.8440 C   0  0  0  0  0  0  0  0  0  0  0  0
   17.5280  -15.0200   22.9520 C   0  0  2  0  0  0  0  0  0  0  0  0
   15.8050  -10.3260   20.5250 N   0  0  0  0  0  0  0  0  0  0  0  0
   19.9640  -12.5690   20.0760 C   0  0  0  0  0  0  0  0  0  0  0  0
   16.2330  -15.8530   22.9220 N   0  3  0  0  0  0  0  0  0  0  0  0
   18.0380  -14.9600   24.4050 C   0  0  0  0  0  0  0  0  0  0  0  0
   14.4220   -9.9700   20.1270 C   0  0  0  0  0  0  0  0  0  0  0  0
   19.3250  -13.6510   20.9670 C   0  0  0  0  0  0  0  0  0  0  0  0
   19.4920  -14.5640   24.5080 C   0  0  0  0  0  0  0  0  0  0  0  0
   13.3870  -10.3800   21.1480 C   0  0  0  0  0  0  0  0  0  0  0  0
   19.8570  -13.4130   25.2160 C   0  0  0  0  0  0  0  0  0  0  0  0
   13.1440   -9.5560   22.2590 C   0  0  0  0  0  0  0  0  0  0  0  0
   21.2040  -13.0550   25.3430 C   0  0  0  0  0  0  0  0  0  0  0  0
   12.1540   -9.8950   23.1880 C   0  0  0  0  0  0  0  0  0  0  0  0
   22.1990  -13.8680   24.7960 C   0  0  0  0  0  0  0  0  0  0  0  0
   11.4130  -11.0780   22.9870 C   0  0  0  0  0  0  0  0  0  0  0  0
   21.8390  -15.0350   24.1100 C   0  0  0  0  0  0  0  0  0  0  0  0
   11.6860  -11.9150   21.9080 C   0  0  0  0  0  0  0  0  0  0  0  0
   20.4940  -15.3790   23.9590 C   0  0  0  0  0  0  0  0  0  0  0  0
   12.6650  -11.5640   20.9720 C   0  0  0  0  0  0  0  0  0  0  0  0
   17.9580  -10.9310   21.7480 H   0  0  0  0  0  0  0  0  0  0  0  0
   18.4620  -11.5980   18.8210 H   0  0  0  0  0  0  0  0  0  0  0  0
   19.3260  -10.4780   19.9600 H   0  0  0  0  0  0  0  0  0  0  0  0
   18.2700  -15.5820   22.3140 H   0  0  0  0  0  0  0  0  0  0  0  0
   16.2790   -9.6470   21.1510 H   0  0  0  0  0  0  0  0  0  0  0  0
   20.2960  -13.0190   19.1100 H   0  0  0  0  0  0  0  0  0  0  0  0
   20.8530  -12.1320   20.5860 H   0  0  0  0  0  0  0  0  0  0  0  0
   16.4300  -16.8190   23.3200 H   0  0  0  0  0  0  0  0  0  0  0  0
   15.4740  -15.3720   23.5050 H   0  0  0  0  0  0  0  0  0  0  0  0
   15.8970  -15.9780   21.9270 H   0  0  0  0  0  0  0  0  0  0  0  0
   17.3970  -14.2620   25.0010 H   0  0  0  0  0  0  0  0  0  0  0  0
   17.9490  -15.9860   24.8650 H   0  0  0  0  0  0  0  0  0  0  0  0
   14.4160   -8.8500   20.0030 H   0  0  0  0  0  0  0  0  0  0  0  0
   14.2010  -10.4390   19.1290 H   0  0  0  0  0  0  0  0  0  0  0  0
   20.0020  -13.9190   21.8180 H   0  0  0  0  0  0  0  0  0  0  0  0
   19.0880  -14.5680   20.3680 H   0  0  0  0  0  0  0  0  0  0  0  0
   19.0930  -12.8050   25.6920 H   0  0  0  0  0  0  0  0  0  0  0  0
   13.7420   -8.6560   22.3900 H   0  0  0  0  0  0  0  0  0  0  0  0
   21.4530  -12.1370   25.8780 H   0  0  0  0  0  0  0  0  0  0  0  0
   23.2550  -13.6080   24.9100 H   0  0  0  0  0  0  0  0  0  0  0  0
   22.6050  -15.6950   23.6900 H   0  0  0  0  0  0  0  0  0  0  0  0
   11.1330  -12.8510   21.8000 H   0  0  0  0  0  0  0  0  0  0  0  0
   20.2230  -16.2930   23.4240 H   0  0  0  0  0  0  0  0  0  0  0  0
   12.8520  -12.2170   20.1180 H   0  0  0  0  0  0  0  0  0  0  0  0
   10.6190  -11.3560   23.6850 H   0  0  0  0  0  0  0  0  0  0  0  0
   11.8860   -9.1250   24.4560 C   0  0  0  0  0  0  0  0  0  0  0  0
   12.3550   -9.7330   25.2700 H   0  0  0  0  0  0  0  0  0  0  0  0
   10.7790   -9.1090   24.6460 H   0  0  0  0  0  0  0  0  0  0  0  0
   12.4150   -7.6960   24.5570 C   0  0  0  0  0  0  0  0  0  0  0  0
   11.7400   -6.9910   24.0370 H   0  0  0  0  0  0  0  0  0  0  0  0
   12.4470   -7.3810   25.6230 H   0  0  0  0  0  0  0  0  0  0  0  0
   13.4490   -7.6190   24.1650 H   0  0  0  0  0  0  0  0  0  0  0  0
  1  2  1  0  0  0  0
  1 14  1  0  0  0  0
  1  3  1  0  0  0  0
  2  5  1  0  0  0  0
  2  7  1  0  0  0  0
  2 27  1  1  0  0  0
  3  8  1  0  0  0  0
  3  4  2  0  0  0  0
  5  6  2  0  0  0  0
  5  9  1  0  0  0  0
  7 10  1  0  0  0  0
  7 28  1  0  0  0  0
  7 29  1  0  0  0  0
  8 11  1  0  0  0  0
  8 12  1  0  0  0  0
  8 30  1  6  0  0  0
  9 13  1  0  0  0  0
  9 31  1  0  0  0  0
 10 14  1  0  0  0  0
 10 32  1  0  0  0  0
 10 33  1  0  0  0  0
 11 34  1  0  0  0  0
 11 35  1  0  0  0  0
 11 36  1  0  0  0  0
 12 15  1  0  0  0  0
 12 37  1  0  0  0  0
 12 38  1  0  0  0  0
 13 16  1  0  0  0  0
 13 39  1  0  0  0  0
 13 40  1  0  0  0  0
 14 41  1  0  0  0  0
 14 42  1  0  0  0  0
 15 17  2  0  0  0  0
 15 25  1  0  0  0  0
 16 18  2  0  0  0  0
 16 26  1  0  0  0  0
 17 19  1  0  0  0  0
 17 43  1  0  0  0  0
 18 20  1  0  0  0  0
 18 44  1  0  0  0  0
 19 21  2  0  0  0  0
 19 45  1  0  0  0  0
 20 22  2  0  0  0  0
 20 52  1  0  0  0  0
 21 23  1  0  0  0  0
 21 46  1  0  0  0  0
 22 24  1  0  0  0  0
 22 51  1  0  0  0  0
 23 25  2  0  0  0  0
 23 47  1  0  0  0  0
 24 26  2  0  0  0  0
 24 48  1  0  0  0  0
 25 49  1  0  0  0  0
 26 50  1  0  0  0  0
 52 53  1  0  0  0  0
 52 54  1  0  0  0  0
 52 55  1  0  0  0  0
 55 56  1  0  0  0  0
 55 57  1  0  0  0  0
 55 58  1  0  0  0  0
M  CHG  1  11   1
M  END
$$$$
