18639-1
 OpenBabel02232411163D
Structure written by MMmdl.
 48 49  0  0  0  0  0  0  0  0999 V2000
   23.9020   12.5870   30.3470 C   0  0  0  0  0  0  0  0  0  0  0  0
   23.4320   11.1490   30.4520 C   0  0  0  0  0  0  0  0  0  0  0  0
   22.1810   11.2590   31.2460 O   0  0  0  0  0  0  0  0  0  0  0  0
   21.5480   10.1210   31.6010 C   0  0  0  0  0  0  0  0  0  0  0  0
   22.0250    8.9310   31.1600 N   0  0  0  0  0  0  0  0  0  0  0  0
   21.2990    7.7950   31.4830 C   0  0  0  0  0  0  0  0  0  0  0  0
   20.1450    7.8330   32.2580 C   0  0  0  0  0  0  0  0  0  0  0  0
   19.6610    9.0830   32.7300 C   0  0  0  0  0  0  0  0  0  0  0  0
   18.5150    9.1210   33.4830 N   0  0  0  0  0  0  0  0  0  0  0  0
   20.3720   10.2790   32.3940 C   0  0  0  0  0  0  0  0  0  0  0  0
   19.9630   11.5780   32.7630 C   0  0  0  0  0  0  0  0  0  0  0  0
   19.6760   12.6710   33.0270 N   0  0  0  0  0  0  0  0  0  0  0  0
   21.8700    6.6270   30.9250 N   0  0  0  0  0  0  0  0  0  0  0  0
   21.2610    5.3570   30.8450 C   0  0  0  0  0  0  0  0  0  0  0  0
   20.1690    5.1180   31.3150 O   0  0  0  0  0  0  0  0  0  0  0  0
   22.0700    4.3430   30.0440 C   0  0  0  0  0  0  0  0  0  0  0  0
   23.4230    4.0370   30.6160 C   0  0  0  0  0  0  0  0  0  0  0  0
   24.5410    4.8770   30.3130 C   0  0  0  0  0  0  0  0  0  0  0  0
   24.2140    5.9280   29.4670 O   0  0  0  0  0  0  0  0  0  0  0  0
   25.1960    6.9870   29.2950 C   0  0  0  0  0  0  0  0  0  0  0  0
   25.8080    4.6120   30.8080 C   0  0  0  0  0  0  0  0  0  0  0  0
   26.0040    3.4910   31.6420 C   0  0  0  0  0  0  0  0  0  0  0  0
   27.3440    3.2090   32.1670 N   0  3  0  0  0  0  0  0  0  0  0  0
   27.4460    2.4220   33.0950 O   0  5  0  0  0  0  0  0  0  0  0  0
   28.3030    3.7690   31.6500 O   0  0  0  0  0  0  0  0  0  0  0  0
   24.9120    2.6440   31.9440 C   0  0  0  0  0  0  0  0  0  0  0  0
   23.6300    2.9240   31.4140 C   0  0  0  0  0  0  0  0  0  0  0  0
   25.2280    1.5990   32.7590 O   0  0  0  0  0  0  0  0  0  0  0  0
   24.2110    0.5760   32.9750 C   0  0  0  0  0  0  0  0  0  0  0  0
   24.7970   12.6210   29.6760 H   0  0  0  0  0  0  0  0  0  0  0  0
   23.1100   13.2350   29.9020 H   0  0  0  0  0  0  0  0  0  0  0  0
   24.1840   12.9970   31.3420 H   0  0  0  0  0  0  0  0  0  0  0  0
   23.1620   10.7140   29.4630 H   0  0  0  0  0  0  0  0  0  0  0  0
   24.1460   10.5030   31.0110 H   0  0  0  0  0  0  0  0  0  0  0  0
   19.5920    6.9200   32.4920 H   0  0  0  0  0  0  0  0  0  0  0  0
   18.0130    8.2480   33.7360 H   0  0  0  0  0  0  0  0  0  0  0  0
   18.1130   10.0050   33.7940 H   0  0  0  0  0  0  0  0  0  0  0  0
   22.7910    6.7630   30.4390 H   0  0  0  0  0  0  0  0  0  0  0  0
   21.4730    3.3940   29.9720 H   0  0  0  0  0  0  0  0  0  0  0  0
   22.2030    4.7590   29.0050 H   0  0  0  0  0  0  0  0  0  0  0  0
   25.5160    7.3880   30.2810 H   0  0  0  0  0  0  0  0  0  0  0  0
   26.0460    6.6030   28.6940 H   0  0  0  0  0  0  0  0  0  0  0  0
   24.6020    7.7420   28.7290 H   0  0  0  0  0  0  0  0  0  0  0  0
   26.6640    5.2480   30.5530 H   0  0  0  0  0  0  0  0  0  0  0  0
   22.7980    2.2510   31.6350 H   0  0  0  0  0  0  0  0  0  0  0  0
   24.7720   -0.1650   33.5930 H   0  0  0  0  0  0  0  0  0  0  0  0
   23.3550    1.0010   33.5420 H   0  0  0  0  0  0  0  0  0  0  0  0
   23.9020    0.1340   32.0030 H   0  0  0  0  0  0  0  0  0  0  0  0
  1  2  1  0  0  0  0
  1 30  1  0  0  0  0
  1 31  1  0  0  0  0
  1 32  1  0  0  0  0
  2  3  1  0  0  0  0
  2 33  1  0  0  0  0
  2 34  1  0  0  0  0
  3  4  1  0  0  0  0
  4 10  2  0  0  0  0
  4  5  1  0  0  0  0
  5  6  2  0  0  0  0
  6  7  1  0  0  0  0
  6 13  1  0  0  0  0
  7  8  2  0  0  0  0
  7 35  1  0  0  0  0
  8  9  1  0  0  0  0
  8 10  1  0  0  0  0
  9 36  1  0  0  0  0
  9 37  1  0  0  0  0
 10 11  1  0  0  0  0
 11 12  3  0  0  0  0
 13 14  1  0  0  0  0
 13 38  1  0  0  0  0
 14 15  2  0  0  0  0
 14 16  1  0  0  0  0
 16 17  1  0  0  0  0
 16 39  1  0  0  0  0
 16 40  1  0  0  0  0
 17 27  2  0  0  0  0
 17 18  1  0  0  0  0
 18 19  1  0  0  0  0
 18 21  2  0  0  0  0
 19 20  1  0  0  0  0
 20 41  1  0  0  0  0
 20 42  1  0  0  0  0
 20 43  1  0  0  0  0
 21 22  1  0  0  0  0
 21 44  1  0  0  0  0
 22 23  1  0  0  0  0
 22 26  2  0  0  0  0
 23 24  1  0  0  0  0
 23 25  2  0  0  0  0
 26 27  1  0  0  0  0
 26 28  1  0  0  0  0
 27 45  1  0  0  0  0
 28 29  1  0  0  0  0
 29 46  1  0  0  0  0
 29 47  1  0  0  0  0
 29 48  1  0  0  0  0
M  CHG  2  23   1  24  -1
M  END
$$$$
