61
 OpenBabel02232411163D
Structure written by MMmdl.
 43 45  0  0  0  0  0  0  0  0999 V2000
    4.0240  -49.9960    5.8940 O   0  0  0  0  0  0  0  0  0  0  0  0
    3.2400  -49.2410    6.4990 C   0  0  0  0  0  0  0  0  0  0  0  0
    3.5310  -48.2480    7.1770 O   0  5  0  0  0  0  0  0  0  0  0  0
    1.7700  -49.6710    6.4310 C   0  0  0  0  0  0  0  0  0  0  0  0
    1.5080  -51.3760    6.7500 S   0  0  0  0  0  0  0  0  0  0  0  0
   -0.2190  -51.2350    6.5910 C   0  0  0  0  0  0  0  0  0  0  0  0
   -1.1580  -52.2490    6.7680 C   0  0  0  0  0  0  0  0  0  0  0  0
   -2.5050  -51.9470    6.5770 C   0  0  0  0  0  0  0  0  0  0  0  0
   -2.8920  -50.6530    6.1920 C   0  0  0  0  0  0  0  0  0  0  0  0
   -1.9310  -49.6590    6.0200 C   0  0  0  0  0  0  0  0  0  0  0  0
   -0.5640  -49.9000    6.2370 C   0  0  0  0  0  0  0  0  0  0  0  0
    0.6070  -49.0110    6.1910 C   0  0  0  0  0  0  0  0  0  0  0  0
    0.4960  -47.5300    5.9900 C   0  0  0  0  0  0  0  0  0  0  0  0
   -0.0740  -46.8880    7.2710 C   0  0  0  0  0  0  0  0  0  0  0  0
   -0.6340  -45.4850    7.0810 C   0  0  0  0  0  0  0  0  0  0  0  0
   -1.8140  -45.4940    6.2140 O   0  0  0  0  0  0  0  0  0  0  0  0
   -3.0590  -45.3780    6.7610 C   0  0  0  0  0  0  0  0  0  0  0  0
   -3.4240  -45.8370    8.0350 C   0  0  0  0  0  0  0  0  0  0  0  0
   -4.7480  -45.6720    8.4610 C   0  0  0  0  0  0  0  0  0  0  0  0
   -5.1870  -46.1790    9.7940 C   0  0  0  0  0  0  0  0  0  0  0  0
   -5.6600  -45.0350    7.6040 C   0  0  0  0  0  0  0  0  0  0  0  0
   -7.2970  -44.8590    8.1230 Cl  0  0  0  0  0  0  0  0  0  0  0  0
   -5.3040  -44.5730    6.3220 C   0  0  0  0  0  0  0  0  0  0  0  0
   -6.3160  -43.9600    5.4110 C   0  0  0  0  0  0  0  0  0  0  0  0
   -3.9860  -44.7540    5.9010 C   0  0  0  0  0  0  0  0  0  0  0  0
   -0.8660  -53.2620    7.0590 H   0  0  0  0  0  0  0  0  0  0  0  0
   -3.2680  -52.7120    6.7280 H   0  0  0  0  0  0  0  0  0  0  0  0
   -3.9510  -50.4340    6.0300 H   0  0  0  0  0  0  0  0  0  0  0  0
   -2.4940  -48.1110    5.5110 Cl  0  0  0  0  0  0  0  0  0  0  0  0
   -0.1650  -47.2920    5.1200 H   0  0  0  0  0  0  0  0  0  0  0  0
    1.4970  -47.0830    5.7720 H   0  0  0  0  0  0  0  0  0  0  0  0
    0.7450  -46.8140    8.0250 H   0  0  0  0  0  0  0  0  0  0  0  0
   -0.8880  -47.5350    7.6820 H   0  0  0  0  0  0  0  0  0  0  0  0
    0.0330  -44.8350    6.4710 H   0  0  0  0  0  0  0  0  0  0  0  0
   -0.9000  -45.0090    8.0500 H   0  0  0  0  0  0  0  0  0  0  0  0
   -2.7150  -46.3550    8.6750 H   0  0  0  0  0  0  0  0  0  0  0  0
   -5.7350  -45.3870   10.3600 H   0  0  0  0  0  0  0  0  0  0  0  0
   -5.8840  -47.0440    9.6560 H   0  0  0  0  0  0  0  0  0  0  0  0
   -4.3230  -46.5280   10.4040 H   0  0  0  0  0  0  0  0  0  0  0  0
   -5.8250  -43.4670    4.5410 H   0  0  0  0  0  0  0  0  0  0  0  0
   -6.9980  -44.7630    5.0290 H   0  0  0  0  0  0  0  0  0  0  0  0
   -6.9380  -43.2040    5.9430 H   0  0  0  0  0  0  0  0  0  0  0  0
   -3.6720  -44.4320    4.9110 H   0  0  0  0  0  0  0  0  0  0  0  0
  1  2  2  0  0  0  0
  2  3  1  0  0  0  0
  2  4  1  0  0  0  0
  4  5  1  0  0  0  0
  4 12  2  0  0  0  0
  5  6  1  0  0  0  0
  6  7  2  0  0  0  0
  6 11  1  0  0  0  0
  7  8  1  0  0  0  0
  7 26  1  0  0  0  0
  8  9  2  0  0  0  0
  8 27  1  0  0  0  0
  9 10  1  0  0  0  0
  9 28  1  0  0  0  0
 10 11  2  0  0  0  0
 10 29  1  0  0  0  0
 11 12  1  0  0  0  0
 12 13  1  0  0  0  0
 13 30  1  0  0  0  0
 13 31  1  0  0  0  0
 13 14  1  0  0  0  0
 14 15  1  0  0  0  0
 14 32  1  0  0  0  0
 14 33  1  0  0  0  0
 15 16  1  0  0  0  0
 15 34  1  0  0  0  0
 15 35  1  0  0  0  0
 16 17  1  0  0  0  0
 17 18  2  0  0  0  0
 17 25  1  0  0  0  0
 18 19  1  0  0  0  0
 18 36  1  0  0  0  0
 19 20  1  0  0  0  0
 19 21  2  0  0  0  0
 20 37  1  0  0  0  0
 20 38  1  0  0  0  0
 20 39  1  0  0  0  0
 21 22  1  0  0  0  0
 21 23  1  0  0  0  0
 23 24  1  0  0  0  0
 23 25  2  0  0  0  0
 24 40  1  0  0  0  0
 24 41  1  0  0  0  0
 24 42  1  0  0  0  0
 25 43  1  0  0  0  0
M  CHG  1   3  -1
M  END
$$$$
