36
 OpenBabel02232411163D
Structure written by MMmdl.
 44 46  0  0  0  0  0  0  0  0999 V2000
    3.7740  -50.1340    5.9010 O   0  0  0  0  0  0  0  0  0  0  0  0
    3.0670  -49.2860    6.4790 C   0  0  0  0  0  0  0  0  0  0  0  0
    3.4620  -48.3080    7.1260 O   0  5  0  0  0  0  0  0  0  0  0  0
    1.5490  -49.5320    6.3790 C   0  0  0  0  0  0  0  0  0  0  0  0
   -0.3560  -50.7930    6.5320 C   0  0  0  0  0  0  0  0  0  0  0  0
   -1.3150  -51.7960    6.7600 C   0  0  0  0  0  0  0  0  0  0  0  0
   -2.6360  -51.4950    6.4650 C   0  0  0  0  0  0  0  0  0  0  0  0
   -3.0030  -50.2300    5.9480 C   0  0  0  0  0  0  0  0  0  0  0  0
   -2.0610  -49.2360    5.7210 C   0  0  0  0  0  0  0  0  0  0  0  0
   -0.7120  -49.4940    6.0170 C   0  0  0  0  0  0  0  0  0  0  0  0
    0.5080  -48.7180    5.9450 C   0  0  0  0  0  0  0  0  0  0  0  0
    0.5620  -47.3030    5.4920 C   0  0  0  0  0  0  0  0  0  0  0  0
    0.4910  -46.3010    6.6590 C   0  0  0  0  0  0  0  0  0  0  0  0
   -0.8560  -46.2990    7.3790 C   0  0  0  0  0  0  0  0  0  0  0  0
   -1.7630  -45.6920    6.3850 O   0  0  0  0  0  0  0  0  0  0  0  0
   -3.0340  -45.3880    6.7550 C   0  0  0  0  0  0  0  0  0  0  0  0
   -3.6520  -45.7960    7.9480 C   0  0  0  0  0  0  0  0  0  0  0  0
   -4.9790  -45.4290    8.2080 C   0  0  0  0  0  0  0  0  0  0  0  0
   -5.6360  -44.6280    7.2590 C   0  0  0  0  0  0  0  0  0  0  0  0
   -5.0290  -44.2140    6.0670 C   0  0  0  0  0  0  0  0  0  0  0  0
   -3.7230  -44.5980    5.8040 C   0  0  0  0  0  0  0  0  0  0  0  0
   -1.0380  -52.7720    7.1580 H   0  0  0  0  0  0  0  0  0  0  0  0
   -3.4150  -52.2390    6.6340 H   0  0  0  0  0  0  0  0  0  0  0  0
   -4.0550  -50.0430    5.7310 H   0  0  0  0  0  0  0  0  0  0  0  0
   -2.3730  -48.2690    5.3230 H   0  0  0  0  0  0  0  0  0  0  0  0
   -0.3110  -47.1040    4.8170 H   0  0  0  0  0  0  0  0  0  0  0  0
    1.5020  -47.1060    4.9230 H   0  0  0  0  0  0  0  0  0  0  0  0
    0.6640  -45.2720    6.2620 H   0  0  0  0  0  0  0  0  0  0  0  0
    1.2810  -46.5470    7.4100 H   0  0  0  0  0  0  0  0  0  0  0  0
   -0.8530  -45.6340    8.2680 H   0  0  0  0  0  0  0  0  0  0  0  0
   -1.2430  -47.3170    7.5930 H   0  0  0  0  0  0  0  0  0  0  0  0
   -3.1220  -46.4150    8.6680 H   0  0  0  0  0  0  0  0  0  0  0  0
   -3.2330  -44.2940    4.8870 H   0  0  0  0  0  0  0  0  0  0  0  0
    1.0320  -50.7920    6.7420 N   0  0  0  0  0  0  0  0  0  0  0  0
    1.5430  -51.5940    7.0910 H   0  0  0  0  0  0  0  0  0  0  0  0
   -5.5790  -43.5980    5.3520 H   0  0  0  0  0  0  0  0  0  0  0  0
   -7.2670  -44.1260    7.5340 Cl  0  0  0  0  0  0  0  0  0  0  0  0
   -5.7000  -45.8570    9.4560 C   0  0  0  0  0  0  0  0  0  0  0  0
   -5.7010  -45.0030   10.1780 H   0  0  0  0  0  0  0  0  0  0  0  0
   -6.7710  -46.0800    9.2090 H   0  0  0  0  0  0  0  0  0  0  0  0
   -5.1150  -47.1010   10.1280 C   0  0  0  0  0  0  0  0  0  0  0  0
   -4.9470  -47.9040    9.3730 H   0  0  0  0  0  0  0  0  0  0  0  0
   -4.1570  -46.8680   10.6390 H   0  0  0  0  0  0  0  0  0  0  0  0
   -5.8390  -47.4880   10.8790 H   0  0  0  0  0  0  0  0  0  0  0  0
  1  2  2  0  0  0  0
  2  3  1  0  0  0  0
  2  4  1  0  0  0  0
  4 11  2  0  0  0  0
  4 34  1  0  0  0  0
  5  6  2  0  0  0  0
  5 10  1  0  0  0  0
  5 34  1  0  0  0  0
  6  7  1  0  0  0  0
  6 22  1  0  0  0  0
  7  8  2  0  0  0  0
  7 23  1  0  0  0  0
  8  9  1  0  0  0  0
  8 24  1  0  0  0  0
  9 10  2  0  0  0  0
  9 25  1  0  0  0  0
 10 11  1  0  0  0  0
 11 12  1  0  0  0  0
 12 26  1  0  0  0  0
 12 27  1  0  0  0  0
 12 13  1  0  0  0  0
 13 14  1  0  0  0  0
 13 28  1  0  0  0  0
 13 29  1  0  0  0  0
 14 15  1  0  0  0  0
 14 30  1  0  0  0  0
 14 31  1  0  0  0  0
 15 16  1  0  0  0  0
 16 17  2  0  0  0  0
 16 21  1  0  0  0  0
 17 18  1  0  0  0  0
 17 32  1  0  0  0  0
 18 19  2  0  0  0  0
 18 38  1  0  0  0  0
 19 20  1  0  0  0  0
 19 37  1  0  0  0  0
 20 21  2  0  0  0  0
 20 36  1  0  0  0  0
 21 33  1  0  0  0  0
 34 35  1  0  0  0  0
 38 39  1  0  0  0  0
 38 40  1  0  0  0  0
 38 41  1  0  0  0  0
 41 42  1  0  0  0  0
 41 43  1  0  0  0  0
 41 44  1  0  0  0  0
M  CHG  1   3  -1
M  END
$$$$
