p38a_3flq
 OpenBabel02232411163D
Structure written by MMmdl.
 47 49  0  0  1  0  0  0  0  0999 V2000
   33.8120   39.0900   23.8870 C   0  0  0  0  0  0  0  0  0  0  0  0
   34.7860   37.8540   21.6210 C   0  0  0  0  0  0  0  0  0  0  0  0
   35.3110   37.1770   20.4640 C   0  0  0  0  0  0  0  0  0  0  0  0
   34.1090   37.1200   22.6390 C   0  0  0  0  0  0  0  0  0  0  0  0
   35.1590   35.8370   20.3710 C   0  0  0  0  0  0  0  0  0  0  0  0
   32.1650   39.3940   25.8030 C   0  0  1  0  0  0  0  0  0  0  0  0
   31.0140   39.0150   24.8580 C   0  0  0  0  0  0  0  0  0  0  0  0
   33.3230   40.2660   28.6060 C   0  0  0  0  0  0  0  0  0  0  0  0
   33.9160   35.7370   22.4990 N   0  0  0  0  0  0  0  0  0  0  0  0
   32.4120   38.2860   26.8340 C   0  0  0  0  0  0  0  0  0  0  0  0
   38.2540   37.0160   15.0160 F   0  0  0  0  0  0  0  0  0  0  0  0
   37.6400   36.5010   16.0790 C   0  0  0  0  0  0  0  0  0  0  0  0
   38.3010   36.5290   17.3100 C   0  0  0  0  0  0  0  0  0  0  0  0
   37.6250   36.0880   18.4530 C   0  0  0  0  0  0  0  0  0  0  0  0
   36.3470   35.9910   15.9090 C   0  0  0  0  0  0  0  0  0  0  0  0
   35.7070   35.5290   17.0550 C   0  0  0  0  0  0  0  0  0  0  0  0
   34.4940   34.9990   16.9810 F   0  0  0  0  0  0  0  0  0  0  0  0
   36.3270   35.5890   18.3200 C   0  0  0  0  0  0  0  0  0  0  0  0
   35.6200   34.9870   19.3710 O   0  0  0  0  0  0  0  0  0  0  0  0
   34.4120   35.0100   21.3610 C   0  0  0  0  0  0  0  0  0  0  0  0
   34.2060   33.8200   21.2620 O   0  0  0  0  0  0  0  0  0  0  0  0
   34.9080   39.2540   21.8170 C   0  0  0  0  0  0  0  0  0  0  0  0
   34.4500   39.8780   22.9140 N   0  0  0  0  0  0  0  0  0  0  0  0
   33.6280   37.7340   23.7720 N   0  0  0  0  0  0  0  0  0  0  0  0
   33.1360   35.0150   23.5430 C   0  0  0  0  0  0  0  0  0  0  0  0
   33.4120   39.7520   25.0490 N   0  0  0  0  0  0  0  0  0  0  0  0
   33.5630   38.6110   28.1260 S   0  0  0  0  0  0  0  0  0  0  0  0
   33.2540   37.7130   29.2740 O   0  0  0  0  0  0  0  0  0  0  0  0
   34.9510   38.4030   27.6760 O   0  0  0  0  0  0  0  0  0  0  0  0
   35.8190   37.7790   19.7050 H   0  0  0  0  0  0  0  0  0  0  0  0
   31.8600   40.3430   26.3400 H   0  0  0  0  0  0  0  0  0  0  0  0
   30.9430   39.7450   24.0270 H   0  0  0  0  0  0  0  0  0  0  0  0
   31.1490   37.9890   24.4440 H   0  0  0  0  0  0  0  0  0  0  0  0
   30.0540   39.0350   25.4210 H   0  0  0  0  0  0  0  0  0  0  0  0
   33.9140   40.5220   29.5270 H   0  0  0  0  0  0  0  0  0  0  0  0
   33.6500   41.0040   27.8260 H   0  0  0  0  0  0  0  0  0  0  0  0
   32.2570   40.4960   28.8580 H   0  0  0  0  0  0  0  0  0  0  0  0
   31.4090   38.0310   27.2840 H   0  0  0  0  0  0  0  0  0  0  0  0
   32.7240   37.3560   26.2750 H   0  0  0  0  0  0  0  0  0  0  0  0
   39.3210   36.9160   17.3880 H   0  0  0  0  0  0  0  0  0  0  0  0
   38.1100   36.1560   19.4300 H   0  0  0  0  0  0  0  0  0  0  0  0
   35.8600   35.9790   14.9300 H   0  0  0  0  0  0  0  0  0  0  0  0
   35.3780   39.8790   21.0410 H   0  0  0  0  0  0  0  0  0  0  0  0
   33.0540   33.9270   23.2860 H   0  0  0  0  0  0  0  0  0  0  0  0
   33.6370   35.1220   24.5430 H   0  0  0  0  0  0  0  0  0  0  0  0
   32.1040   35.4550   23.6200 H   0  0  0  0  0  0  0  0  0  0  0  0
   33.5930   40.7810   25.0700 H   0  0  0  0  0  0  0  0  0  0  0  0
  1 23  2  0  0  0  0
  1 24  1  0  0  0  0
  1 26  1  0  0  0  0
  2  3  1  0  0  0  0
  2  4  1  0  0  0  0
  2 22  2  0  0  0  0
  3  5  2  0  0  0  0
  3 30  1  0  0  0  0
  4  9  1  0  0  0  0
  4 24  2  0  0  0  0
  5 19  1  0  0  0  0
  5 20  1  0  0  0  0
  6  7  1  0  0  0  0
  6 10  1  0  0  0  0
  6 26  1  0  0  0  0
  6 31  1  6  0  0  0
  7 32  1  0  0  0  0
  7 33  1  0  0  0  0
  7 34  1  0  0  0  0
  8 27  1  0  0  0  0
  8 35  1  0  0  0  0
  8 36  1  0  0  0  0
  8 37  1  0  0  0  0
  9 20  1  0  0  0  0
  9 25  1  0  0  0  0
 10 27  1  0  0  0  0
 10 38  1  0  0  0  0
 10 39  1  0  0  0  0
 11 12  1  0  0  0  0
 12 13  2  0  0  0  0
 12 15  1  0  0  0  0
 13 14  1  0  0  0  0
 13 40  1  0  0  0  0
 14 18  2  0  0  0  0
 14 41  1  0  0  0  0
 15 16  2  0  0  0  0
 15 42  1  0  0  0  0
 16 17  1  0  0  0  0
 16 18  1  0  0  0  0
 18 19  1  0  0  0  0
 20 21  2  0  0  0  0
 22 23  1  0  0  0  0
 22 43  1  0  0  0  0
 25 44  1  0  0  0  0
 25 45  1  0  0  0  0
 25 46  1  0  0  0  0
 26 47  1  0  0  0  0
 27 28  2  0  0  0  0
 27 29  2  0  0  0  0
M  END
$$$$
