p38a_2u
 OpenBabel02232411163D
Structure written by MMmdl.
 64 68  0  0  0  0  0  0  0  0999 V2000
   38.2220   36.5000   17.2300 C   0  0  0  0  0  0  0  0  0  0  0  0
   34.4980   35.1590   21.3700 C   0  0  0  0  0  0  0  0  0  0  0  0
   37.4450   36.0740   18.3040 C   0  0  0  0  0  0  0  0  0  0  0  0
   34.0340   39.2790   23.8570 C   0  0  0  0  0  0  0  0  0  0  0  0
   34.6110   38.0360   21.4660 C   0  0  0  0  0  0  0  0  0  0  0  0
   35.0020   37.3600   20.2600 C   0  0  0  0  0  0  0  0  0  0  0  0
   37.5620   36.6430   16.0010 C   0  0  0  0  0  0  0  0  0  0  0  0
   36.2070   36.3580   15.8170 C   0  0  0  0  0  0  0  0  0  0  0  0
   35.4510   35.9230   16.9110 C   0  0  0  0  0  0  0  0  0  0  0  0
   34.2230   37.2830   22.6130 C   0  0  0  0  0  0  0  0  0  0  0  0
   34.6160   39.4520   21.5930 C   0  0  0  0  0  0  0  0  0  0  0  0
   34.9820   36.0080   20.2440 C   0  0  0  0  0  0  0  0  0  0  0  0
   36.0750   35.7720   18.1530 C   0  0  0  0  0  0  0  0  0  0  0  0
   37.9940   35.9480   19.5050 F   0  0  0  0  0  0  0  0  0  0  0  0
   35.3610   35.1700   19.1960 O   0  0  0  0  0  0  0  0  0  0  0  0
   34.3410   40.0860   22.7420 N   0  0  0  0  0  0  0  0  0  0  0  0
   34.4190   33.9510   21.3180 O   0  0  0  0  0  0  0  0  0  0  0  0
   34.0970   35.8780   22.5490 N   0  0  0  0  0  0  0  0  0  0  0  0
   33.9600   37.8990   23.8090 N   0  0  0  0  0  0  0  0  0  0  0  0
   33.7360   39.9090   25.0420 N   0  0  0  0  0  0  0  0  0  0  0  0
   39.2820   36.7460   17.3460 H   0  0  0  0  0  0  0  0  0  0  0  0
   35.3150   37.9620   19.4040 H   0  0  0  0  0  0  0  0  0  0  0  0
   35.7280   36.4820   14.8430 H   0  0  0  0  0  0  0  0  0  0  0  0
   34.3820   35.7170   16.7900 H   0  0  0  0  0  0  0  0  0  0  0  0
   34.8500   40.0750   20.7150 H   0  0  0  0  0  0  0  0  0  0  0  0
   33.8720   40.9340   25.1280 H   0  0  0  0  0  0  0  0  0  0  0  0
   38.2570   37.1100   14.9670 F   0  0  0  0  0  0  0  0  0  0  0  0
   32.5370   39.2560   28.6120 C   0  0  0  0  0  0  0  0  0  0  0  0
   32.6150   39.9310   27.2360 C   0  0  0  0  0  0  0  0  0  0  0  0
   33.5980   39.1610   26.3310 C   0  0  0  0  0  0  0  0  0  0  0  0
   34.9700   39.0220   27.0250 C   0  0  0  0  0  0  0  0  0  0  0  0
   34.7890   38.3910   28.4110 C   0  0  0  0  0  0  0  0  0  0  0  0
   33.8420   39.1250   29.2190 O   0  0  0  0  0  0  0  0  0  0  0  0
   32.0690   38.2480   28.5340 H   0  0  0  0  0  0  0  0  0  0  0  0
   32.0030   39.9050   29.3440 H   0  0  0  0  0  0  0  0  0  0  0  0
   32.9580   40.9860   27.3610 H   0  0  0  0  0  0  0  0  0  0  0  0
   31.6040   39.9470   26.7640 H   0  0  0  0  0  0  0  0  0  0  0  0
   33.1800   38.1380   26.1130 H   0  0  0  0  0  0  0  0  0  0  0  0
   35.6390   38.3710   26.4130 H   0  0  0  0  0  0  0  0  0  0  0  0
   35.4490   40.0250   27.1230 H   0  0  0  0  0  0  0  0  0  0  0  0
   34.4490   37.3340   28.3240 H   0  0  0  0  0  0  0  0  0  0  0  0
   35.7240   38.4730   29.0130 H   0  0  0  0  0  0  0  0  0  0  0  0
   34.2320   33.4060   25.5160 C   0  0  0  0  0  0  0  0  0  0  0  0
   34.7270   34.5410   24.5850 C   0  0  0  0  0  0  0  0  0  0  0  0
   33.5690   35.1470   23.7690 C   0  0  0  0  0  0  0  0  0  0  0  0
   32.5420   34.0690   23.3870 C   0  0  0  0  0  0  0  0  0  0  0  0
   31.8680   33.5210   24.6620 C   0  0  0  0  0  0  0  0  0  0  0  0
   34.8270   33.4630   26.4670 H   0  0  0  0  0  0  0  0  0  0  0  0
   34.4320   32.4200   25.0170 H   0  0  0  0  0  0  0  0  0  0  0  0
   35.5130   34.1160   23.9190 H   0  0  0  0  0  0  0  0  0  0  0  0
   35.1870   35.3500   25.2050 H   0  0  0  0  0  0  0  0  0  0  0  0
   33.0380   35.9080   24.4170 H   0  0  0  0  0  0  0  0  0  0  0  0
   31.7510   34.4950   22.7250 H   0  0  0  0  0  0  0  0  0  0  0  0
   33.0450   33.2310   22.8430 H   0  0  0  0  0  0  0  0  0  0  0  0
   30.9930   34.1780   24.9210 H   0  0  0  0  0  0  0  0  0  0  0  0
   31.5090   32.4800   24.4410 H   0  0  0  0  0  0  0  0  0  0  0  0
   32.7830   33.5350   25.8480 N   0  0  0  0  0  0  0  0  0  0  0  0
   32.2010   32.8150   27.3020 S   0  0  0  0  0  0  0  0  0  0  0  0
   30.8160   32.3610   27.0580 O   0  0  0  0  0  0  0  0  0  0  0  0
   32.2680   33.8120   28.3830 O   0  0  0  0  0  0  0  0  0  0  0  0
   33.2370   31.4700   27.6630 C   0  0  0  0  0  0  0  0  0  0  0  0
   34.2180   31.7750   28.1060 H   0  0  0  0  0  0  0  0  0  0  0  0
   32.7650   30.7790   28.4150 H   0  0  0  0  0  0  0  0  0  0  0  0
   33.4590   30.8340   26.7650 H   0  0  0  0  0  0  0  0  0  0  0  0
  1  3  2  0  0  0  0
  1  7  1  0  0  0  0
  1 21  1  0  0  0  0
  2 12  1  0  0  0  0
  2 17  2  0  0  0  0
  2 18  1  0  0  0  0
  3 13  1  0  0  0  0
  3 14  1  0  0  0  0
  4 16  2  0  0  0  0
  4 19  1  0  0  0  0
  4 20  1  0  0  0  0
  5  6  1  0  0  0  0
  5 10  1  0  0  0  0
  5 11  2  0  0  0  0
  6 12  2  0  0  0  0
  6 22  1  0  0  0  0
  7  8  2  0  0  0  0
  7 27  1  0  0  0  0
  8  9  1  0  0  0  0
  8 23  1  0  0  0  0
  9 13  2  0  0  0  0
  9 24  1  0  0  0  0
 10 18  1  0  0  0  0
 10 19  2  0  0  0  0
 11 16  1  0  0  0  0
 11 25  1  0  0  0  0
 12 15  1  0  0  0  0
 13 15  1  0  0  0  0
 18 45  1  0  0  0  0
 20 26  1  0  0  0  0
 20 30  1  0  0  0  0
 28 29  1  0  0  0  0
 28 33  1  0  0  0  0
 28 34  1  0  0  0  0
 28 35  1  0  0  0  0
 29 30  1  0  0  0  0
 29 36  1  0  0  0  0
 29 37  1  0  0  0  0
 30 31  1  0  0  0  0
 30 38  1  0  0  0  0
 31 32  1  0  0  0  0
 31 39  1  0  0  0  0
 31 40  1  0  0  0  0
 32 33  1  0  0  0  0
 32 41  1  0  0  0  0
 32 42  1  0  0  0  0
 43 44  1  0  0  0  0
 43 48  1  0  0  0  0
 43 49  1  0  0  0  0
 43 57  1  0  0  0  0
 44 45  1  0  0  0  0
 44 50  1  0  0  0  0
 44 51  1  0  0  0  0
 45 46  1  0  0  0  0
 45 52  1  0  0  0  0
 46 47  1  0  0  0  0
 46 53  1  0  0  0  0
 46 54  1  0  0  0  0
 47 55  1  0  0  0  0
 47 56  1  0  0  0  0
 47 57  1  0  0  0  0
 57 58  1  0  0  0  0
 58 59  2  0  0  0  0
 58 60  2  0  0  0  0
 58 61  1  0  0  0  0
 61 62  1  0  0  0  0
 61 63  1  0  0  0  0
 61 64  1  0  0  0  0
M  END
$$$$
