ejm_47
 OpenBabel02232411173D
Structure written by MMmdl.
 39 41  0  0  0  0  0  0  0  0999 V2000
   -1.5880   21.5280  -27.6010 C   0  0  0  0  0  0  0  0  0  0  0  0
   -2.8710   21.0360  -27.8550 C   0  0  0  0  0  0  0  0  0  0  0  0
   -3.6450   21.6150  -28.8620 C   0  0  0  0  0  0  0  0  0  0  0  0
   -3.1710   22.6930  -29.6270 C   0  0  0  0  0  0  0  0  0  0  0  0
   -1.8870   23.1730  -29.3380 C   0  0  0  0  0  0  0  0  0  0  0  0
   -1.0910   22.6030  -28.3420 C   0  0  0  0  0  0  0  0  0  0  0  0
   -1.2440   24.5020  -30.2070 Cl  0  0  0  0  0  0  0  0  0  0  0  0
   -4.0280   23.2270  -30.7380 C   0  0  0  0  0  0  0  0  0  0  0  0
   -4.4470   22.5210  -31.6290 O   0  0  0  0  0  0  0  0  0  0  0  0
   -4.3200   24.6020  -30.6190 N   0  0  0  0  0  0  0  0  0  0  0  0
   -5.1500   25.3710  -31.4830 C   0  0  0  0  0  0  0  0  0  0  0  0
   -5.8360   24.8310  -32.5820 C   0  0  0  0  0  0  0  0  0  0  0  0
   -6.6690   25.6780  -33.3280 C   0  0  0  0  0  0  0  0  0  0  0  0
   -6.8360   26.9960  -33.0560 N   0  0  0  0  0  0  0  0  0  0  0  0
   -6.1420   27.5190  -31.9800 C   0  0  0  0  0  0  0  0  0  0  0  0
   -5.2930   26.7420  -31.1790 C   0  0  0  0  0  0  0  0  0  0  0  0
   -6.3730   28.9060  -31.7570 N   0  0  0  0  0  0  0  0  0  0  0  0
   -5.6320   29.7510  -30.8850 C   0  0  0  0  0  0  0  0  0  0  0  0
   -4.7880   29.2880  -30.1410 O   0  0  0  0  0  0  0  0  0  0  0  0
   -5.2060   20.9840  -29.1790 Cl  0  0  0  0  0  0  0  0  0  0  0  0
   -0.9700   21.0750  -26.8180 H   0  0  0  0  0  0  0  0  0  0  0  0
   -3.2530   20.2090  -27.2530 H   0  0  0  0  0  0  0  0  0  0  0  0
   -0.0910   22.9900  -28.1270 H   0  0  0  0  0  0  0  0  0  0  0  0
   -3.8990   25.1140  -29.8220 H   0  0  0  0  0  0  0  0  0  0  0  0
   -5.7530   23.7760  -32.8550 H   0  0  0  0  0  0  0  0  0  0  0  0
   -7.2370   25.2820  -34.1870 H   0  0  0  0  0  0  0  0  0  0  0  0
   -4.7510   27.1900  -30.3390 H   0  0  0  0  0  0  0  0  0  0  0  0
   -7.2260   29.2960  -32.2160 H   0  0  0  0  0  0  0  0  0  0  0  0
   -5.9670   31.2210  -30.9980 C   0  0  0  0  0  0  0  0  0  0  0  0
   -5.9180   32.0300  -29.6690 C   0  0  0  0  0  0  0  0  0  0  0  0
   -4.7560   32.8910  -30.2230 C   0  0  0  0  0  0  0  0  0  0  0  0
   -4.7780   32.0740  -31.5360 C   0  0  0  0  0  0  0  0  0  0  0  0
   -6.8470   32.6040  -29.4930 H   0  0  0  0  0  0  0  0  0  0  0  0
   -5.6440   31.4510  -28.7730 H   0  0  0  0  0  0  0  0  0  0  0  0
   -5.0180   33.9580  -30.3550 H   0  0  0  0  0  0  0  0  0  0  0  0
   -3.8150   32.8080  -29.6480 H   0  0  0  0  0  0  0  0  0  0  0  0
   -5.0540   32.6700  -32.4230 H   0  0  0  0  0  0  0  0  0  0  0  0
   -3.8530   31.5030  -31.7240 H   0  0  0  0  0  0  0  0  0  0  0  0
   -6.9110   31.4090  -31.5530 H   0  0  0  0  0  0  0  0  0  0  0  0
  1  2  2  0  0  0  0
  1  6  1  0  0  0  0
  1 21  1  0  0  0  0
  2  3  1  0  0  0  0
  2 22  1  0  0  0  0
  3  4  2  0  0  0  0
  3 20  1  0  0  0  0
  4  5  1  0  0  0  0
  4  8  1  0  0  0  0
  5  6  2  0  0  0  0
  5  7  1  0  0  0  0
  6 23  1  0  0  0  0
  8  9  2  0  0  0  0
  8 10  1  0  0  0  0
 10 11  1  0  0  0  0
 10 24  1  0  0  0  0
 11 12  2  0  0  0  0
 11 16  1  0  0  0  0
 12 13  1  0  0  0  0
 12 25  1  0  0  0  0
 13 14  2  0  0  0  0
 13 26  1  0  0  0  0
 14 15  1  0  0  0  0
 15 16  2  0  0  0  0
 15 17  1  0  0  0  0
 16 27  1  0  0  0  0
 17 18  1  0  0  0  0
 17 28  1  0  0  0  0
 18 19  2  0  0  0  0
 18 29  1  0  0  0  0
 29 30  1  0  0  0  0
 29 32  1  0  0  0  0
 29 39  1  0  0  0  0
 30 31  1  0  0  0  0
 30 33  1  0  0  0  0
 30 34  1  0  0  0  0
 31 32  1  0  0  0  0
 31 35  1  0  0  0  0
 31 36  1  0  0  0  0
 32 37  1  0  0  0  0
 32 38  1  0  0  0  0
M  END
$$$$
