p38a_2x
 OpenBabel02232411163D
Structure written by MMmdl.
 43 46  0  0  1  0  0  0  0  0999 V2000
   36.3570   36.0610   15.7890 C   0  0  0  0  0  0  0  0  0  0  0  0
   34.5140   35.0190   21.2770 C   0  0  0  0  0  0  0  0  0  0  0  0
   35.7240   35.5750   16.9290 C   0  0  0  0  0  0  0  0  0  0  0  0
   33.9160   39.1280   23.7570 C   0  0  0  0  0  0  0  0  0  0  0  0
   34.7690   37.8800   21.4510 C   0  0  0  0  0  0  0  0  0  0  0  0
   35.2770   37.1970   20.2920 C   0  0  0  0  0  0  0  0  0  0  0  0
   37.6510   36.5680   15.9620 C   0  0  0  0  0  0  0  0  0  0  0  0
   38.3190   36.5740   17.1900 C   0  0  0  0  0  0  0  0  0  0  0  0
   37.6470   36.1130   18.3280 C   0  0  0  0  0  0  0  0  0  0  0  0
   34.2190   37.1400   22.5390 C   0  0  0  0  0  0  0  0  0  0  0  0
   34.8000   39.2930   21.5880 C   0  0  0  0  0  0  0  0  0  0  0  0
   35.1840   35.8490   20.2390 C   0  0  0  0  0  0  0  0  0  0  0  0
   36.3490   35.6120   18.1920 C   0  0  0  0  0  0  0  0  0  0  0  0
   33.4970   34.9940   23.5870 C   0  0  0  0  0  0  0  0  0  0  0  0
   34.5100   35.0470   16.8520 F   0  0  0  0  0  0  0  0  0  0  0  0
   35.6500   34.9980   19.2390 O   0  0  0  0  0  0  0  0  0  0  0  0
   34.3930   39.9270   22.6970 N   0  0  0  0  0  0  0  0  0  0  0  0
   34.3110   33.8270   21.1960 O   0  0  0  0  0  0  0  0  0  0  0  0
   34.0920   35.7450   22.4450 N   0  0  0  0  0  0  0  0  0  0  0  0
   33.7950   37.7580   23.6940 N   0  0  0  0  0  0  0  0  0  0  0  0
   33.6170   39.8070   24.9220 N   0  0  0  0  0  0  0  0  0  0  0  0
   35.8630   36.0700   14.8150 H   0  0  0  0  0  0  0  0  0  0  0  0
   35.7330   37.7980   19.5020 H   0  0  0  0  0  0  0  0  0  0  0  0
   39.3370   36.9620   17.2740 H   0  0  0  0  0  0  0  0  0  0  0  0
   38.1340   36.1700   19.3050 H   0  0  0  0  0  0  0  0  0  0  0  0
   35.1600   39.9160   20.7540 H   0  0  0  0  0  0  0  0  0  0  0  0
   34.1250   35.1420   24.5070 H   0  0  0  0  0  0  0  0  0  0  0  0
   32.4610   35.3750   23.7960 H   0  0  0  0  0  0  0  0  0  0  0  0
   33.4470   33.9000   23.3490 H   0  0  0  0  0  0  0  0  0  0  0  0
   33.6850   40.8470   24.9060 H   0  0  0  0  0  0  0  0  0  0  0  0
   38.2580   37.1040   14.9050 F   0  0  0  0  0  0  0  0  0  0  0  0
   32.4390   37.4390   27.5080 O   0  0  0  0  0  0  0  0  0  0  0  0
   31.2100   37.5890   26.7350 C   0  0  0  0  0  0  0  0  0  0  0  0
   31.4400   38.6710   25.6710 C   0  0  0  0  0  0  0  0  0  0  0  0
   32.7990   39.3040   26.0510 C   0  0  1  0  0  0  0  0  0  0  0  0
   33.5020   38.2050   26.8900 C   0  0  0  0  0  0  0  0  0  0  0  0
   30.4400   37.8820   27.4820 H   0  0  0  0  0  0  0  0  0  0  0  0
   30.9940   36.5940   26.2890 H   0  0  0  0  0  0  0  0  0  0  0  0
   31.4740   38.2130   24.6550 H   0  0  0  0  0  0  0  0  0  0  0  0
   30.6320   39.4320   25.6760 H   0  0  0  0  0  0  0  0  0  0  0  0
   32.6200   40.2120   26.7000 H   0  0  0  0  0  0  0  0  0  0  0  0
   34.0860   38.6240   27.7380 H   0  0  0  0  0  0  0  0  0  0  0  0
   34.1030   37.5080   26.2660 H   0  0  0  0  0  0  0  0  0  0  0  0
  1  3  2  0  0  0  0
  1  7  1  0  0  0  0
  1 22  1  0  0  0  0
  2 12  1  0  0  0  0
  2 18  2  0  0  0  0
  2 19  1  0  0  0  0
  3 13  1  0  0  0  0
  3 15  1  0  0  0  0
  4 17  2  0  0  0  0
  4 20  1  0  0  0  0
  4 21  1  0  0  0  0
  5  6  1  0  0  0  0
  5 10  1  0  0  0  0
  5 11  2  0  0  0  0
  6 12  2  0  0  0  0
  6 23  1  0  0  0  0
  7  8  2  0  0  0  0
  7 31  1  0  0  0  0
  8  9  1  0  0  0  0
  8 24  1  0  0  0  0
  9 13  2  0  0  0  0
  9 25  1  0  0  0  0
 10 19  1  0  0  0  0
 10 20  2  0  0  0  0
 11 17  1  0  0  0  0
 11 26  1  0  0  0  0
 12 16  1  0  0  0  0
 13 16  1  0  0  0  0
 14 19  1  0  0  0  0
 14 27  1  0  0  0  0
 14 28  1  0  0  0  0
 14 29  1  0  0  0  0
 21 30  1  0  0  0  0
 21 35  1  0  0  0  0
 32 33  1  0  0  0  0
 32 36  1  0  0  0  0
 33 34  1  0  0  0  0
 33 37  1  0  0  0  0
 33 38  1  0  0  0  0
 34 35  1  0  0  0  0
 34 39  1  0  0  0  0
 34 40  1  0  0  0  0
 35 36  1  0  0  0  0
 35 41  1  1  0  0  0
 36 42  1  0  0  0  0
 36 43  1  0  0  0  0
M  END
$$$$
