p38a_2aa
 OpenBabel02232411163D
Structure written by MMmdl.
 43 45  0  0  0  0  0  0  0  0999 V2000
   38.3040   36.5640   17.1470 C   0  0  0  0  0  0  0  0  0  0  0  0
   34.5100   35.0960   21.1900 C   0  0  0  0  0  0  0  0  0  0  0  0
   37.5240   36.1080   18.2060 C   0  0  0  0  0  0  0  0  0  0  0  0
   33.7510   39.1700   23.6810 C   0  0  0  0  0  0  0  0  0  0  0  0
   32.7600   39.0840   25.9770 C   0  0  0  0  0  0  0  0  0  0  0  0
   34.5690   37.9770   21.3370 C   0  0  0  0  0  0  0  0  0  0  0  0
   35.0290   37.3200   20.1430 C   0  0  0  0  0  0  0  0  0  0  0  0
   37.6540   36.7180   15.9150 C   0  0  0  0  0  0  0  0  0  0  0  0
   36.3060   36.4120   15.7110 C   0  0  0  0  0  0  0  0  0  0  0  0
   35.5470   35.9390   16.7870 C   0  0  0  0  0  0  0  0  0  0  0  0
   34.1450   37.2020   22.4570 C   0  0  0  0  0  0  0  0  0  0  0  0
   34.5180   39.3900   21.4760 C   0  0  0  0  0  0  0  0  0  0  0  0
   35.0230   35.9680   20.1000 C   0  0  0  0  0  0  0  0  0  0  0  0
   36.1630   35.7780   18.0320 C   0  0  0  0  0  0  0  0  0  0  0  0
   33.6560   35.0190   23.5620 C   0  0  0  0  0  0  0  0  0  0  0  0
   38.0570   35.9780   19.4140 F   0  0  0  0  0  0  0  0  0  0  0  0
   35.4520   35.1460   19.0600 O   0  0  0  0  0  0  0  0  0  0  0  0
   34.1240   39.9990   22.6060 N   0  0  0  0  0  0  0  0  0  0  0  0
   34.4080   33.8890   21.1370 O   0  0  0  0  0  0  0  0  0  0  0  0
   34.1220   35.7990   22.3820 N   0  0  0  0  0  0  0  0  0  0  0  0
   33.7450   37.7930   23.6300 N   0  0  0  0  0  0  0  0  0  0  0  0
   33.4640   39.7990   24.8820 N   0  0  0  0  0  0  0  0  0  0  0  0
   39.3570   36.8280   17.2800 H   0  0  0  0  0  0  0  0  0  0  0  0
   32.6190   40.0320   27.2000 C   0  0  0  0  0  0  0  0  0  0  0  0
   35.3750   37.9390   19.3130 H   0  0  0  0  0  0  0  0  0  0  0  0
   35.8340   36.5510   14.7360 H   0  0  0  0  0  0  0  0  0  0  0  0
   34.4850   35.7150   16.6490 H   0  0  0  0  0  0  0  0  0  0  0  0
   34.7990   40.0350   20.6270 H   0  0  0  0  0  0  0  0  0  0  0  0
   34.2760   35.2770   24.4640 H   0  0  0  0  0  0  0  0  0  0  0  0
   32.5840   35.2650   23.7890 H   0  0  0  0  0  0  0  0  0  0  0  0
   33.7440   33.9200   23.3610 H   0  0  0  0  0  0  0  0  0  0  0  0
   33.2990   40.8210   24.8650 H   0  0  0  0  0  0  0  0  0  0  0  0
   38.3470   37.2200   14.8970 F   0  0  0  0  0  0  0  0  0  0  0  0
   31.3570   38.5630   25.5470 C   0  0  0  0  0  0  0  0  0  0  0  0
   30.7740   39.4190   24.5600 O   0  0  0  0  0  0  0  0  0  0  0  0
   30.2390   40.1420   24.9970 H   0  0  0  0  0  0  0  0  0  0  0  0
   31.4590   37.5880   25.0070 H   0  0  0  0  0  0  0  0  0  0  0  0
   30.6850   38.4530   26.4260 H   0  0  0  0  0  0  0  0  0  0  0  0
   33.8350   40.7340   27.4880 O   0  0  0  0  0  0  0  0  0  0  0  0
   31.8140   40.7770   27.0230 H   0  0  0  0  0  0  0  0  0  0  0  0
   32.4320   39.4290   28.1220 H   0  0  0  0  0  0  0  0  0  0  0  0
   33.9060   41.4840   26.8080 H   0  0  0  0  0  0  0  0  0  0  0  0
   33.3830   38.1920   26.2820 H   0  0  0  0  0  0  0  0  0  0  0  0
  1  3  2  0  0  0  0
  1  8  1  0  0  0  0
  1 23  1  0  0  0  0
  2 13  1  0  0  0  0
  2 19  2  0  0  0  0
  2 20  1  0  0  0  0
  3 14  1  0  0  0  0
  3 16  1  0  0  0  0
  4 18  2  0  0  0  0
  4 21  1  0  0  0  0
  4 22  1  0  0  0  0
  5 22  1  0  0  0  0
  5 24  1  0  0  0  0
  5 34  1  0  0  0  0
  5 43  1  0  0  0  0
  6  7  1  0  0  0  0
  6 11  1  0  0  0  0
  6 12  2  0  0  0  0
  7 13  2  0  0  0  0
  7 25  1  0  0  0  0
  8  9  2  0  0  0  0
  8 33  1  0  0  0  0
  9 10  1  0  0  0  0
  9 26  1  0  0  0  0
 10 14  2  0  0  0  0
 10 27  1  0  0  0  0
 11 20  1  0  0  0  0
 11 21  2  0  0  0  0
 12 18  1  0  0  0  0
 12 28  1  0  0  0  0
 13 17  1  0  0  0  0
 14 17  1  0  0  0  0
 15 20  1  0  0  0  0
 15 29  1  0  0  0  0
 15 30  1  0  0  0  0
 15 31  1  0  0  0  0
 22 32  1  0  0  0  0
 24 39  1  0  0  0  0
 24 40  1  0  0  0  0
 24 41  1  0  0  0  0
 34 35  1  0  0  0  0
 34 37  1  0  0  0  0
 34 38  1  0  0  0  0
 35 36  1  0  0  0  0
 39 42  1  0  0  0  0
M  END
$$$$
