p38a_2r
 OpenBabel02232411163D
Structure written by MMmdl.
 56 59  0  0  0  0  0  0  0  0999 V2000
   38.2400   36.5190   17.2030 C   0  0  0  0  0  0  0  0  0  0  0  0
   34.6640   35.0710   21.3100 C   0  0  0  0  0  0  0  0  0  0  0  0
   37.4330   36.0860   18.2510 C   0  0  0  0  0  0  0  0  0  0  0  0
   34.1940   39.0680   24.0020 C   0  0  0  0  0  0  0  0  0  0  0  0
   34.7560   37.9380   21.5460 C   0  0  0  0  0  0  0  0  0  0  0  0
   35.0530   37.3270   20.2790 C   0  0  0  0  0  0  0  0  0  0  0  0
   37.6140   36.6830   15.9600 C   0  0  0  0  0  0  0  0  0  0  0  0
   36.2630   36.4080   15.7360 C   0  0  0  0  0  0  0  0  0  0  0  0
   35.4750   35.9660   16.8040 C   0  0  0  0  0  0  0  0  0  0  0  0
   34.5180   37.1270   22.6950 C   0  0  0  0  0  0  0  0  0  0  0  0
   34.6970   39.3470   21.7280 C   0  0  0  0  0  0  0  0  0  0  0  0
   35.0340   35.9780   20.1910 C   0  0  0  0  0  0  0  0  0  0  0  0
   36.0640   35.8000   18.0610 C   0  0  0  0  0  0  0  0  0  0  0  0
   37.9520   35.9380   19.4630 F   0  0  0  0  0  0  0  0  0  0  0  0
   35.2970   35.1980   19.0650 O   0  0  0  0  0  0  0  0  0  0  0  0
   34.4290   39.9250   22.9080 N   0  0  0  0  0  0  0  0  0  0  0  0
   34.4890   33.8770   21.2150 O   0  0  0  0  0  0  0  0  0  0  0  0
   34.5350   35.7240   22.5900 N   0  0  0  0  0  0  0  0  0  0  0  0
   34.2560   37.6900   23.9220 N   0  0  0  0  0  0  0  0  0  0  0  0
   33.8220   39.6370   25.1960 N   0  0  0  0  0  0  0  0  0  0  0  0
   39.2990   36.7550   17.3490 H   0  0  0  0  0  0  0  0  0  0  0  0
   35.2930   37.9760   19.4330 H   0  0  0  0  0  0  0  0  0  0  0  0
   35.8120   36.5480   14.7510 H   0  0  0  0  0  0  0  0  0  0  0  0
   34.4090   35.7670   16.6490 H   0  0  0  0  0  0  0  0  0  0  0  0
   34.8700   40.0170   20.8680 H   0  0  0  0  0  0  0  0  0  0  0  0
   33.8520   40.6710   25.3010 H   0  0  0  0  0  0  0  0  0  0  0  0
   38.3370   37.1610   14.9500 F   0  0  0  0  0  0  0  0  0  0  0  0
   33.4840   40.6310   28.2670 C   0  0  0  0  0  0  0  0  0  0  0  0
   32.6810   39.6570   27.3960 C   0  0  0  0  0  0  0  0  0  0  0  0
   33.5510   38.8290   26.4280 C   0  0  0  0  0  0  0  0  0  0  0  0
   34.8470   38.3360   27.1020 C   0  0  0  0  0  0  0  0  0  0  0  0
   35.5340   39.4290   27.9230 C   0  0  0  0  0  0  0  0  0  0  0  0
   34.6240   40.0030   28.8900 O   0  0  0  0  0  0  0  0  0  0  0  0
   32.8850   40.9700   29.1440 H   0  0  0  0  0  0  0  0  0  0  0  0
   33.8460   41.4950   27.6680 H   0  0  0  0  0  0  0  0  0  0  0  0
   31.9200   40.2400   26.8200 H   0  0  0  0  0  0  0  0  0  0  0  0
   32.1330   38.9360   28.0550 H   0  0  0  0  0  0  0  0  0  0  0  0
   32.9560   37.9240   26.1130 H   0  0  0  0  0  0  0  0  0  0  0  0
   34.5750   37.4790   27.7710 H   0  0  0  0  0  0  0  0  0  0  0  0
   35.5560   37.9450   26.3330 H   0  0  0  0  0  0  0  0  0  0  0  0
   36.3320   39.0080   28.5750 H   0  0  0  0  0  0  0  0  0  0  0  0
   35.9170   40.2430   27.2670 H   0  0  0  0  0  0  0  0  0  0  0  0
   34.4260   34.8810   23.8150 C   0  0  0  0  0  0  0  0  0  0  0  0
   34.9550   33.9070   23.6250 H   0  0  0  0  0  0  0  0  0  0  0  0
   34.9620   35.4080   24.6550 H   0  0  0  0  0  0  0  0  0  0  0  0
   32.9600   34.5540   24.2730 C   0  0  0  0  0  0  0  0  0  0  0  0
   32.1090   35.7060   24.1250 O   0  0  0  0  0  0  0  0  0  0  0  0
   32.5780   36.5050   24.4600 H   0  0  0  0  0  0  0  0  0  0  0  0
   33.0080   34.1620   25.7590 C   0  0  0  0  0  0  0  0  0  0  0  0
   33.4430   34.9760   26.3830 H   0  0  0  0  0  0  0  0  0  0  0  0
   31.9830   33.9520   26.1410 H   0  0  0  0  0  0  0  0  0  0  0  0
   33.6260   33.2460   25.9060 H   0  0  0  0  0  0  0  0  0  0  0  0
   32.3010   33.4720   23.4160 C   0  0  0  0  0  0  0  0  0  0  0  0
   31.2510   33.3050   23.7510 H   0  0  0  0  0  0  0  0  0  0  0  0
   32.2880   33.7700   22.3460 H   0  0  0  0  0  0  0  0  0  0  0  0
   32.8590   32.5150   23.5250 H   0  0  0  0  0  0  0  0  0  0  0  0
  1  3  2  0  0  0  0
  1  7  1  0  0  0  0
  1 21  1  0  0  0  0
  2 12  1  0  0  0  0
  2 17  2  0  0  0  0
  2 18  1  0  0  0  0
  3 13  1  0  0  0  0
  3 14  1  0  0  0  0
  4 16  2  0  0  0  0
  4 19  1  0  0  0  0
  4 20  1  0  0  0  0
  5  6  1  0  0  0  0
  5 10  1  0  0  0  0
  5 11  2  0  0  0  0
  6 12  2  0  0  0  0
  6 22  1  0  0  0  0
  7  8  2  0  0  0  0
  7 27  1  0  0  0  0
  8  9  1  0  0  0  0
  8 23  1  0  0  0  0
  9 13  2  0  0  0  0
  9 24  1  0  0  0  0
 10 18  1  0  0  0  0
 10 19  2  0  0  0  0
 11 16  1  0  0  0  0
 11 25  1  0  0  0  0
 12 15  1  0  0  0  0
 13 15  1  0  0  0  0
 18 43  1  0  0  0  0
 20 26  1  0  0  0  0
 20 30  1  0  0  0  0
 28 29  1  0  0  0  0
 28 33  1  0  0  0  0
 28 34  1  0  0  0  0
 28 35  1  0  0  0  0
 29 30  1  0  0  0  0
 29 36  1  0  0  0  0
 29 37  1  0  0  0  0
 30 31  1  0  0  0  0
 30 38  1  0  0  0  0
 31 32  1  0  0  0  0
 31 39  1  0  0  0  0
 31 40  1  0  0  0  0
 32 33  1  0  0  0  0
 32 41  1  0  0  0  0
 32 42  1  0  0  0  0
 43 44  1  0  0  0  0
 43 45  1  0  0  0  0
 43 46  1  0  0  0  0
 46 47  1  0  0  0  0
 46 49  1  0  0  0  0
 46 53  1  0  0  0  0
 47 48  1  0  0  0  0
 49 50  1  0  0  0  0
 49 51  1  0  0  0  0
 49 52  1  0  0  0  0
 53 54  1  0  0  0  0
 53 55  1  0  0  0  0
 53 56  1  0  0  0  0
M  END
$$$$
