18659-1
 OpenBabel02232411163D
Structure written by MMmdl.
 50 51  0  0  0  0  0  0  0  0999 V2000
   22.6760   13.8590   28.8620 C   0  0  0  0  0  0  0  0  0  0  0  0
   23.0450   13.6390   30.2400 O   0  0  0  0  0  0  0  0  0  0  0  0
   23.9500   12.5430   30.4410 C   0  0  0  0  0  0  0  0  0  0  0  0
   23.2860   11.1610   30.3400 C   0  0  0  0  0  0  0  0  0  0  0  0
   22.1350   11.2370   31.2550 O   0  0  0  0  0  0  0  0  0  0  0  0
   21.5080   10.0860   31.5930 C   0  0  0  0  0  0  0  0  0  0  0  0
   21.9670    8.9050   31.1200 N   0  0  0  0  0  0  0  0  0  0  0  0
   21.2540    7.7620   31.4560 C   0  0  0  0  0  0  0  0  0  0  0  0
   20.1190    7.7940   32.2610 C   0  0  0  0  0  0  0  0  0  0  0  0
   19.6450    9.0400   32.7490 C   0  0  0  0  0  0  0  0  0  0  0  0
   18.5050    9.0790   33.5120 N   0  0  0  0  0  0  0  0  0  0  0  0
   20.3520   10.2400   32.4150 C   0  0  0  0  0  0  0  0  0  0  0  0
   19.9540   11.5360   32.8060 C   0  0  0  0  0  0  0  0  0  0  0  0
   19.6750   12.6270   33.0850 N   0  0  0  0  0  0  0  0  0  0  0  0
   21.8140    6.6040   30.8750 N   0  0  0  0  0  0  0  0  0  0  0  0
   21.2560    5.3030   30.8560 C   0  0  0  0  0  0  0  0  0  0  0  0
   20.2010    5.0320   31.3880 O   0  0  0  0  0  0  0  0  0  0  0  0
   22.0770    4.3100   30.0450 C   0  0  0  0  0  0  0  0  0  0  0  0
   23.4240    4.0400   30.6490 C   0  0  0  0  0  0  0  0  0  0  0  0
   24.5310    4.8900   30.3560 C   0  0  0  0  0  0  0  0  0  0  0  0
   24.2070    5.9230   29.4810 O   0  0  0  0  0  0  0  0  0  0  0  0
   25.1760    6.9930   29.3260 C   0  0  0  0  0  0  0  0  0  0  0  0
   25.7920    4.6600   30.8920 C   0  0  0  0  0  0  0  0  0  0  0  0
   25.9900    3.5740   31.7580 C   0  0  0  0  0  0  0  0  0  0  0  0
   24.9130    2.7390   32.0510 C   0  0  0  0  0  0  0  0  0  0  0  0
   23.6310    2.9550   31.4880 C   0  0  0  0  0  0  0  0  0  0  0  0
   24.9370    1.6420   32.8870 O   0  0  0  0  0  0  0  0  0  0  0  0
   26.1990    1.3100   33.5210 C   0  0  0  0  0  0  0  0  0  0  0  0
   23.5860   14.0290   28.2430 H   0  0  0  0  0  0  0  0  0  0  0  0
   22.0950   12.9920   28.4820 H   0  0  0  0  0  0  0  0  0  0  0  0
   22.0560   14.7800   28.9330 H   0  0  0  0  0  0  0  0  0  0  0  0
   24.3080   12.7390   31.4790 H   0  0  0  0  0  0  0  0  0  0  0  0
   24.7940   12.5790   29.7070 H   0  0  0  0  0  0  0  0  0  0  0  0
   22.8880   10.9400   29.3250 H   0  0  0  0  0  0  0  0  0  0  0  0
   23.9930   10.3630   30.6770 H   0  0  0  0  0  0  0  0  0  0  0  0
   19.5750    6.8800   32.5070 H   0  0  0  0  0  0  0  0  0  0  0  0
   18.0120    8.2080   33.7860 H   0  0  0  0  0  0  0  0  0  0  0  0
   18.1130    9.9630   33.8360 H   0  0  0  0  0  0  0  0  0  0  0  0
   22.7210    6.7560   30.3640 H   0  0  0  0  0  0  0  0  0  0  0  0
   21.5000    3.3520   29.9630 H   0  0  0  0  0  0  0  0  0  0  0  0
   22.2170    4.7310   29.0110 H   0  0  0  0  0  0  0  0  0  0  0  0
   26.0570    6.6150   28.7650 H   0  0  0  0  0  0  0  0  0  0  0  0
   25.4610    7.4110   30.3160 H   0  0  0  0  0  0  0  0  0  0  0  0
   24.5990    7.7350   28.7270 H   0  0  0  0  0  0  0  0  0  0  0  0
   26.6450    5.3000   30.6550 H   0  0  0  0  0  0  0  0  0  0  0  0
   26.9870    3.4130   32.1730 H   0  0  0  0  0  0  0  0  0  0  0  0
   22.8270    2.2520   31.7220 H   0  0  0  0  0  0  0  0  0  0  0  0
   25.9260    0.4050   34.1130 H   0  0  0  0  0  0  0  0  0  0  0  0
   26.5280    2.1410   34.1830 H   0  0  0  0  0  0  0  0  0  0  0  0
   26.9650    1.0680   32.7510 H   0  0  0  0  0  0  0  0  0  0  0  0
  1  2  1  0  0  0  0
  1 29  1  0  0  0  0
  1 30  1  0  0  0  0
  1 31  1  0  0  0  0
  2  3  1  0  0  0  0
  3  4  1  0  0  0  0
  3 32  1  0  0  0  0
  3 33  1  0  0  0  0
  4  5  1  0  0  0  0
  4 34  1  0  0  0  0
  4 35  1  0  0  0  0
  5  6  1  0  0  0  0
  6 12  2  0  0  0  0
  6  7  1  0  0  0  0
  7  8  2  0  0  0  0
  8  9  1  0  0  0  0
  8 15  1  0  0  0  0
  9 10  2  0  0  0  0
  9 36  1  0  0  0  0
 10 11  1  0  0  0  0
 10 12  1  0  0  0  0
 11 37  1  0  0  0  0
 11 38  1  0  0  0  0
 12 13  1  0  0  0  0
 13 14  3  0  0  0  0
 15 16  1  0  0  0  0
 15 39  1  0  0  0  0
 16 17  2  0  0  0  0
 16 18  1  0  0  0  0
 18 19  1  0  0  0  0
 18 40  1  0  0  0  0
 18 41  1  0  0  0  0
 19 26  2  0  0  0  0
 19 20  1  0  0  0  0
 20 21  1  0  0  0  0
 20 23  2  0  0  0  0
 21 22  1  0  0  0  0
 22 42  1  0  0  0  0
 22 43  1  0  0  0  0
 22 44  1  0  0  0  0
 23 24  1  0  0  0  0
 23 45  1  0  0  0  0
 24 25  2  0  0  0  0
 24 46  1  0  0  0  0
 25 26  1  0  0  0  0
 25 27  1  0  0  0  0
 26 47  1  0  0  0  0
 27 28  1  0  0  0  0
 28 48  1  0  0  0  0
 28 49  1  0  0  0  0
 28 50  1  0  0  0  0
M  END
$$$$
