18628-1
 OpenBabel02232411163D
Structure written by MMmdl.
 41 42  0  0  0  0  0  0  0  0999 V2000
   23.7810   12.6630   30.3690 C   0  0  0  0  0  0  0  0  0  0  0  0
   23.3600   11.2100   30.4770 C   0  0  0  0  0  0  0  0  0  0  0  0
   22.1140   11.2800   31.2840 O   0  0  0  0  0  0  0  0  0  0  0  0
   21.4970   10.1290   31.6200 C   0  0  0  0  0  0  0  0  0  0  0  0
   21.9950    8.9490   31.1800 N   0  0  0  0  0  0  0  0  0  0  0  0
   21.2850    7.7970   31.4930 C   0  0  0  0  0  0  0  0  0  0  0  0
   20.1290    7.8130   32.2660 C   0  0  0  0  0  0  0  0  0  0  0  0
   19.6210    9.0550   32.7340 C   0  0  0  0  0  0  0  0  0  0  0  0
   18.4730    9.0820   33.4840 N   0  0  0  0  0  0  0  0  0  0  0  0
   20.3080   10.2650   32.3980 C   0  0  0  0  0  0  0  0  0  0  0  0
   19.8670   11.5580   32.7510 C   0  0  0  0  0  0  0  0  0  0  0  0
   19.5540   12.6470   32.9970 N   0  0  0  0  0  0  0  0  0  0  0  0
   21.8770    6.6520   30.9110 N   0  0  0  0  0  0  0  0  0  0  0  0
   21.3380    5.3410   30.8440 C   0  0  0  0  0  0  0  0  0  0  0  0
   20.3090    5.0300   31.4040 O   0  0  0  0  0  0  0  0  0  0  0  0
   22.1480    4.4040   29.9590 C   0  0  0  0  0  0  0  0  0  0  0  0
   23.4210    3.9620   30.6310 C   0  0  0  0  0  0  0  0  0  0  0  0
   24.6680    4.5840   30.4210 C   0  0  0  0  0  0  0  0  0  0  0  0
   24.9110    5.7000   29.4530 C   0  0  0  0  0  0  0  0  0  0  0  0
   25.7840    4.1330   31.1550 C   0  0  0  0  0  0  0  0  0  0  0  0
   25.6810    3.0770   32.0560 C   0  0  0  0  0  0  0  0  0  0  0  0
   24.4520    2.4320   32.2280 C   0  0  0  0  0  0  0  0  0  0  0  0
   23.3370    2.8700   31.5160 C   0  0  0  0  0  0  0  0  0  0  0  0
   24.6970   12.7240   29.7290 H   0  0  0  0  0  0  0  0  0  0  0  0
   24.0150   13.0960   31.3680 H   0  0  0  0  0  0  0  0  0  0  0  0
   22.9820   13.2760   29.8890 H   0  0  0  0  0  0  0  0  0  0  0  0
   23.0980   10.7680   29.4900 H   0  0  0  0  0  0  0  0  0  0  0  0
   24.0990   10.5900   31.0320 H   0  0  0  0  0  0  0  0  0  0  0  0
   19.5950    6.8910   32.5050 H   0  0  0  0  0  0  0  0  0  0  0  0
   18.0620    9.9640   33.7920 H   0  0  0  0  0  0  0  0  0  0  0  0
   17.9860    8.2070   33.7550 H   0  0  0  0  0  0  0  0  0  0  0  0
   22.7830    6.8330   30.4370 H   0  0  0  0  0  0  0  0  0  0  0  0
   22.3570    4.9070   28.9820 H   0  0  0  0  0  0  0  0  0  0  0  0
   21.5150    3.5020   29.7360 H   0  0  0  0  0  0  0  0  0  0  0  0
   25.1130    6.6520   30.0100 H   0  0  0  0  0  0  0  0  0  0  0  0
   25.8310    5.4810   28.8480 H   0  0  0  0  0  0  0  0  0  0  0  0
   24.0840    5.8710   28.7370 H   0  0  0  0  0  0  0  0  0  0  0  0
   26.7530    4.6230   31.0110 H   0  0  0  0  0  0  0  0  0  0  0  0
   26.5600    2.7490   32.6190 H   0  0  0  0  0  0  0  0  0  0  0  0
   24.3700    1.5870   32.9170 H   0  0  0  0  0  0  0  0  0  0  0  0
   22.3890    2.3450   31.6490 H   0  0  0  0  0  0  0  0  0  0  0  0
  1  2  1  0  0  0  0
  1 24  1  0  0  0  0
  1 25  1  0  0  0  0
  1 26  1  0  0  0  0
  2  3  1  0  0  0  0
  2 27  1  0  0  0  0
  2 28  1  0  0  0  0
  3  4  1  0  0  0  0
  4 10  2  0  0  0  0
  4  5  1  0  0  0  0
  5  6  2  0  0  0  0
  6  7  1  0  0  0  0
  6 13  1  0  0  0  0
  7  8  2  0  0  0  0
  7 29  1  0  0  0  0
  8  9  1  0  0  0  0
  8 10  1  0  0  0  0
  9 30  1  0  0  0  0
  9 31  1  0  0  0  0
 10 11  1  0  0  0  0
 11 12  3  0  0  0  0
 13 14  1  0  0  0  0
 13 32  1  0  0  0  0
 14 15  2  0  0  0  0
 14 16  1  0  0  0  0
 16 17  1  0  0  0  0
 16 33  1  0  0  0  0
 16 34  1  0  0  0  0
 17 23  2  0  0  0  0
 17 18  1  0  0  0  0
 18 19  1  0  0  0  0
 18 20  2  0  0  0  0
 19 35  1  0  0  0  0
 19 36  1  0  0  0  0
 19 37  1  0  0  0  0
 20 21  1  0  0  0  0
 20 38  1  0  0  0  0
 21 22  2  0  0  0  0
 21 39  1  0  0  0  0
 22 23  1  0  0  0  0
 22 40  1  0  0  0  0
 23 41  1  0  0  0  0
M  END
$$$$
