p38a_2z
 OpenBabel02232411163D
Structure written by MMmdl.
 45 47  0  0  0  0  0  0  0  0999 V2000
   36.4030   36.0950   15.7310 C   0  0  0  0  0  0  0  0  0  0  0  0
   34.4470   34.9350   21.1070 C   0  0  0  0  0  0  0  0  0  0  0  0
   35.7830   35.5850   16.8670 C   0  0  0  0  0  0  0  0  0  0  0  0
   33.8310   38.9060   23.8020 C   0  0  0  0  0  0  0  0  0  0  0  0
   32.8040   38.8230   26.1520 C   0  0  0  0  0  0  0  0  0  0  0  0
   34.7460   37.7790   21.4510 C   0  0  0  0  0  0  0  0  0  0  0  0
   35.3160   37.1460   20.2920 C   0  0  0  0  0  0  0  0  0  0  0  0
   37.6870   36.6270   15.9060 C   0  0  0  0  0  0  0  0  0  0  0  0
   38.3560   36.6360   17.1330 C   0  0  0  0  0  0  0  0  0  0  0  0
   37.6960   36.1530   18.2690 C   0  0  0  0  0  0  0  0  0  0  0  0
   34.1010   36.9960   22.4520 C   0  0  0  0  0  0  0  0  0  0  0  0
   34.8080   39.1800   21.6820 C   0  0  0  0  0  0  0  0  0  0  0  0
   35.2000   35.8050   20.1630 C   0  0  0  0  0  0  0  0  0  0  0  0
   36.4090   35.6280   18.1300 C   0  0  0  0  0  0  0  0  0  0  0  0
   33.2000   34.8260   23.2970 C   0  0  0  0  0  0  0  0  0  0  0  0
   34.5830   35.0280   16.7880 F   0  0  0  0  0  0  0  0  0  0  0  0
   35.7260   34.9830   19.1680 O   0  0  0  0  0  0  0  0  0  0  0  0
   34.3720   39.7560   22.8110 N   0  0  0  0  0  0  0  0  0  0  0  0
   34.2530   33.7480   20.9580 O   0  0  0  0  0  0  0  0  0  0  0  0
   33.9250   35.6140   22.2610 N   0  0  0  0  0  0  0  0  0  0  0  0
   33.6370   37.5530   23.6170 N   0  0  0  0  0  0  0  0  0  0  0  0
   33.5370   39.4930   25.0140 N   0  0  0  0  0  0  0  0  0  0  0  0
   35.9080   36.1010   14.7580 H   0  0  0  0  0  0  0  0  0  0  0  0
   33.5110   37.5320   26.5790 C   0  0  0  0  0  0  0  0  0  0  0  0
   35.8340   37.7750   19.5650 H   0  0  0  0  0  0  0  0  0  0  0  0
   39.3680   37.0400   17.2190 H   0  0  0  0  0  0  0  0  0  0  0  0
   38.1850   36.2120   19.2450 H   0  0  0  0  0  0  0  0  0  0  0  0
   35.2270   39.8440   20.9080 H   0  0  0  0  0  0  0  0  0  0  0  0
   33.8110   34.7790   24.2390 H   0  0  0  0  0  0  0  0  0  0  0  0
   32.2180   35.3170   23.5350 H   0  0  0  0  0  0  0  0  0  0  0  0
   33.0080   33.7860   22.9280 H   0  0  0  0  0  0  0  0  0  0  0  0
   33.5850   40.5330   25.0640 H   0  0  0  0  0  0  0  0  0  0  0  0
   38.2820   37.1790   14.8510 F   0  0  0  0  0  0  0  0  0  0  0  0
   32.8700   39.8580   27.3330 C   0  0  0  0  0  0  0  0  0  0  0  0
   31.3420   38.5770   25.7460 C   0  0  0  0  0  0  0  0  0  0  0  0
   32.4370   39.2700   28.5640 O   0  0  0  0  0  0  0  0  0  0  0  0
   31.4780   39.0400   28.5040 H   0  0  0  0  0  0  0  0  0  0  0  0
   33.9260   40.1480   27.5520 H   0  0  0  0  0  0  0  0  0  0  0  0
   32.2470   40.7510   27.1130 H   0  0  0  0  0  0  0  0  0  0  0  0
   30.7700   38.1460   26.5970 H   0  0  0  0  0  0  0  0  0  0  0  0
   30.8530   39.5200   25.4200 H   0  0  0  0  0  0  0  0  0  0  0  0
   31.2870   37.8430   24.9070 H   0  0  0  0  0  0  0  0  0  0  0  0
   33.1940   37.2590   27.6140 H   0  0  0  0  0  0  0  0  0  0  0  0
   33.2480   36.6870   25.9010 H   0  0  0  0  0  0  0  0  0  0  0  0
   34.6160   37.6610   26.5740 H   0  0  0  0  0  0  0  0  0  0  0  0
  1  3  2  0  0  0  0
  1  8  1  0  0  0  0
  1 23  1  0  0  0  0
  2 13  1  0  0  0  0
  2 19  2  0  0  0  0
  2 20  1  0  0  0  0
  3 14  1  0  0  0  0
  3 16  1  0  0  0  0
  4 18  2  0  0  0  0
  4 21  1  0  0  0  0
  4 22  1  0  0  0  0
  5 22  1  0  0  0  0
  5 24  1  0  0  0  0
  5 34  1  0  0  0  0
  5 35  1  0  0  0  0
  6  7  1  0  0  0  0
  6 11  1  0  0  0  0
  6 12  2  0  0  0  0
  7 13  2  0  0  0  0
  7 25  1  0  0  0  0
  8  9  2  0  0  0  0
  8 33  1  0  0  0  0
  9 10  1  0  0  0  0
  9 26  1  0  0  0  0
 10 14  2  0  0  0  0
 10 27  1  0  0  0  0
 11 20  1  0  0  0  0
 11 21  2  0  0  0  0
 12 18  1  0  0  0  0
 12 28  1  0  0  0  0
 13 17  1  0  0  0  0
 14 17  1  0  0  0  0
 15 20  1  0  0  0  0
 15 29  1  0  0  0  0
 15 30  1  0  0  0  0
 15 31  1  0  0  0  0
 22 32  1  0  0  0  0
 24 43  1  0  0  0  0
 24 44  1  0  0  0  0
 24 45  1  0  0  0  0
 34 36  1  0  0  0  0
 34 38  1  0  0  0  0
 34 39  1  0  0  0  0
 35 40  1  0  0  0  0
 35 41  1  0  0  0  0
 35 42  1  0  0  0  0
 36 37  1  0  0  0  0
M  END
$$$$
