18638-1
                    3D
 Schrodinger Suite 2022-3.
 52 53  0  0  1  0  0  0  0  0999 V2000
   25.8530    4.3980   29.9980 C   0  0  0  0  0  0  0  0  0  0  0  0
   24.5130    4.7370   29.8570 C   0  0  0  0  0  0  0  0  0  0  0  0
   23.4740    3.9050   30.3680 C   0  0  0  0  0  0  0  0  0  0  0  0
   23.8480    2.7810   31.0840 C   0  0  0  0  0  0  0  0  0  0  0  0
   25.2210    2.4460   31.2500 C   0  0  0  0  0  0  0  0  0  0  0  0
   26.2390    3.2320   30.6850 C   0  0  0  0  0  0  0  0  0  0  0  0
   22.0340    4.1790   30.0420 C   0  0  0  0  0  0  0  0  0  0  0  0
   21.2990    5.1690   30.9320 C   0  0  0  0  0  0  0  0  0  0  0  0
   21.9180    6.4340   31.0150 N   0  0  0  0  0  0  0  0  0  0  0  0
   21.3480    7.6120   31.5520 C   0  0  0  0  0  0  0  0  0  0  0  0
   20.2310    4.9240   31.4520 O   0  0  0  0  0  0  0  0  0  0  0  0
   22.0860    8.7350   31.2160 N   0  0  0  0  0  0  0  0  0  0  0  0
   21.6210    9.9370   31.6270 C   0  0  0  0  0  0  0  0  0  0  0  0
   20.4350   10.1240   32.3990 C   0  0  0  0  0  0  0  0  0  0  0  0
   19.7040    8.9420   32.7430 C   0  0  0  0  0  0  0  0  0  0  0  0
   20.1820    7.6760   32.3090 C   0  0  0  0  0  0  0  0  0  0  0  0
   25.6390    1.3550   31.9600 O   0  0  0  0  0  0  0  0  0  0  0  0
   24.6370    0.4450   32.4970 C   0  0  0  0  0  0  0  0  0  0  0  0
   24.0500    5.8580   29.1680 O   0  0  0  0  0  0  0  0  0  0  0  0
   24.9530    6.9980   29.1150 C   0  0  0  0  0  0  0  0  0  0  0  0
   18.5380    9.0120   33.4630 N   0  0  0  0  0  0  0  0  0  0  0  0
   20.0400   11.4330   32.7480 C   0  0  0  0  0  0  0  0  0  0  0  0
   22.2880   11.0610   31.2820 O   0  0  0  0  0  0  0  0  0  0  0  0
   23.5370   10.9420   30.5020 C   0  0  0  0  0  0  0  0  0  0  0  0
   23.2200   10.7580   29.0330 C   0  0  0  0  0  0  0  0  0  0  0  0
   19.7640   12.5310   33.0000 N   0  0  0  0  0  0  0  0  0  0  0  0
   26.6030    5.0580   29.5520 H   0  0  0  0  0  0  0  0  0  0  0  0
   23.0740    2.1400   31.5100 H   0  0  0  0  0  0  0  0  0  0  0  0
   19.6210    6.7740   32.5580 H   0  0  0  0  0  0  0  0  0  0  0  0
   21.4670    3.2090   30.0650 H   0  0  0  0  0  0  0  0  0  0  0  0
   21.9840    4.6000   28.9960 H   0  0  0  0  0  0  0  0  0  0  0  0
   22.8240    6.5690   30.5030 H   0  0  0  0  0  0  0  0  0  0  0  0
   24.0070    0.9640   33.2520 H   0  0  0  0  0  0  0  0  0  0  0  0
   24.0390    0.0050   31.6690 H   0  0  0  0  0  0  0  0  0  0  0  0
   25.2770   -0.3320   32.9810 H   0  0  0  0  0  0  0  0  0  0  0  0
   24.2620    7.8260   28.8320 H   0  0  0  0  0  0  0  0  0  0  0  0
   25.4170    7.1860   30.1080 H   0  0  0  0  0  0  0  0  0  0  0  0
   25.7200    6.8160   28.3320 H   0  0  0  0  0  0  0  0  0  0  0  0
   18.0400    8.1500   33.7570 H   0  0  0  0  0  0  0  0  0  0  0  0
   18.1530    9.9070   33.7650 H   0  0  0  0  0  0  0  0  0  0  0  0
   24.1580   10.1110   30.9070 H   0  0  0  0  0  0  0  0  0  0  0  0
   23.9840   11.9430   30.7170 H   0  0  0  0  0  0  0  0  0  0  0  0
   22.5840   11.5870   28.6490 H   0  0  0  0  0  0  0  0  0  0  0  0
   24.1740   10.7530   28.4490 H   0  0  0  0  0  0  0  0  0  0  0  0
   22.6940    9.7910   28.8510 H   0  0  0  0  0  0  0  0  0  0  0  0
   27.9430    2.7950   30.7250 S   0  0  0  0  0  0  0  0  0  0  0  0
   28.1330    1.6570   29.7900 O   0  0  0  0  0  0  0  0  0  0  0  0
   28.3070    2.4210   32.1130 O   0  0  0  0  0  0  0  0  0  0  0  0
   28.8870    4.1610   30.2210 C   0  0  0  0  0  0  0  0  0  0  0  0
   29.9870    3.9830   30.3670 H   0  0  0  0  0  0  0  0  0  0  0  0
   28.7630    4.4100   29.1340 H   0  0  0  0  0  0  0  0  0  0  0  0
   28.6510    5.0970   30.7920 H   0  0  0  0  0  0  0  0  0  0  0  0
  1  2  1  0  0  0  0
  1  6  2  0  0  0  0
  1 27  1  0  0  0  0
  2  3  2  0  0  0  0
  2 19  1  0  0  0  0
  3  4  1  0  0  0  0
  3  7  1  0  0  0  0
  4  5  2  0  0  0  0
  4 28  1  0  0  0  0
  5  6  1  0  0  0  0
  5 17  1  0  0  0  0
  6 46  1  0  0  0  0
  7  8  1  0  0  0  0
  7 30  1  0  0  0  0
  7 31  1  0  0  0  0
  8  9  1  0  0  0  0
  8 11  2  0  0  0  0
  9 10  1  0  0  0  0
  9 32  1  0  0  0  0
 10 12  1  0  0  0  0
 10 16  2  0  0  0  0
 12 13  2  0  0  0  0
 13 14  1  0  0  0  0
 13 23  1  0  0  0  0
 14 15  2  0  0  0  0
 14 22  1  0  0  0  0
 15 16  1  0  0  0  0
 15 21  1  0  0  0  0
 16 29  1  0  0  0  0
 17 18  1  0  0  0  0
 18 33  1  0  0  0  0
 18 34  1  0  0  0  0
 18 35  1  0  0  0  0
 19 20  1  0  0  0  0
 20 36  1  0  0  0  0
 20 37  1  0  0  0  0
 20 38  1  0  0  0  0
 21 39  1  0  0  0  0
 21 40  1  0  0  0  0
 22 26  3  0  0  0  0
 23 24  1  0  0  0  0
 24 25  1  0  0  0  0
 24 41  1  0  0  0  0
 24 42  1  0  0  0  0
 25 43  1  0  0  0  0
 25 44  1  0  0  0  0
 25 45  1  0  0  0  0
 46 47  2  0  0  0  0
 46 48  2  0  0  0  0
 46 49  1  0  0  0  0
 49 50  1  0  0  0  0
 49 51  1  0  0  0  0
 49 52  1  0  0  0  0
M  END
$$$$
