p38a_3fmk
 OpenBabel02232411163D
Structure written by MMmdl.
 46 49  0  0  1  0  0  0  0  0999 V2000
   35.7200   35.5470   16.9530 C   0  0  0  0  0  0  0  0  0  0  0  0
   36.3620   36.0290   15.8170 C   0  0  0  0  0  0  0  0  0  0  0  0
   33.3800   35.0570   23.5760 C   0  0  0  0  0  0  0  0  0  0  0  0
   38.3120   36.5490   17.2320 C   0  0  0  0  0  0  0  0  0  0  0  0
   34.7960   39.3120   21.5710 C   0  0  0  0  0  0  0  0  0  0  0  0
   32.5940   39.3810   25.9230 C   0  0  1  0  0  0  0  0  0  0  0  0
   33.2600   38.2290   26.7310 C   0  0  0  0  0  0  0  0  0  0  0  0
   33.8560   39.1780   23.7160 C   0  0  0  0  0  0  0  0  0  0  0  0
   34.4560   35.0380   21.2880 C   0  0  0  0  0  0  0  0  0  0  0  0
   35.1490   35.8530   20.2520 C   0  0  0  0  0  0  0  0  0  0  0  0
   35.2570   37.2010   20.2960 C   0  0  0  0  0  0  0  0  0  0  0  0
   36.3340   35.5940   18.2210 C   0  0  0  0  0  0  0  0  0  0  0  0
   37.6320   36.0930   18.3660 C   0  0  0  0  0  0  0  0  0  0  0  0
   34.7360   37.9000   21.4400 C   0  0  0  0  0  0  0  0  0  0  0  0
   34.1460   37.1770   22.5170 C   0  0  0  0  0  0  0  0  0  0  0  0
   33.5580   39.8550   24.8870 N   0  0  0  0  0  0  0  0  0  0  0  0
   37.6540   36.5390   15.9980 C   0  0  0  0  0  0  0  0  0  0  0  0
   38.2680   37.0740   14.9450 F   0  0  0  0  0  0  0  0  0  0  0  0
   34.5070   35.0170   16.8680 F   0  0  0  0  0  0  0  0  0  0  0  0
   35.6230   34.9890   19.2680 O   0  0  0  0  0  0  0  0  0  0  0  0
   34.2550   33.8450   21.2220 O   0  0  0  0  0  0  0  0  0  0  0  0
   34.0030   35.7830   22.4330 N   0  0  0  0  0  0  0  0  0  0  0  0
   33.7030   37.8110   23.6550 N   0  0  0  0  0  0  0  0  0  0  0  0
   34.3770   39.9610   22.6680 N   0  0  0  0  0  0  0  0  0  0  0  0
   31.2400   38.9770   25.3420 C   0  0  0  0  0  0  0  0  0  0  0  0
   32.5330   37.9860   27.9980 N   0  0  0  0  0  0  0  0  0  0  0  0
   32.4810   38.8840   29.0210 N   0  0  0  0  0  0  0  0  0  0  0  0
   31.7090   38.2740   29.9660 C   0  0  0  0  0  0  0  0  0  0  0  0
   31.3130   36.9990   29.4840 N   0  0  0  0  0  0  0  0  0  0  0  0
   31.8170   36.8550   28.2980 N   0  0  0  0  0  0  0  0  0  0  0  0
   35.8770   36.0340   14.8380 H   0  0  0  0  0  0  0  0  0  0  0  0
   34.0200   35.1750   24.4930 H   0  0  0  0  0  0  0  0  0  0  0  0
   32.3640   35.4850   23.7930 H   0  0  0  0  0  0  0  0  0  0  0  0
   33.2770   33.9670   23.3370 H   0  0  0  0  0  0  0  0  0  0  0  0
   39.3310   36.9370   17.3210 H   0  0  0  0  0  0  0  0  0  0  0  0
   35.1900   39.9230   20.7430 H   0  0  0  0  0  0  0  0  0  0  0  0
   32.4560   40.2700   26.6120 H   0  0  0  0  0  0  0  0  0  0  0  0
   33.2600   37.2730   26.1290 H   0  0  0  0  0  0  0  0  0  0  0  0
   34.3270   38.5110   26.9670 H   0  0  0  0  0  0  0  0  0  0  0  0
   35.7350   37.7900   19.5100 H   0  0  0  0  0  0  0  0  0  0  0  0
   38.1090   36.1540   19.3470 H   0  0  0  0  0  0  0  0  0  0  0  0
   33.6740   40.8900   24.8900 H   0  0  0  0  0  0  0  0  0  0  0  0
   30.8240   39.8100   24.7310 H   0  0  0  0  0  0  0  0  0  0  0  0
   31.3280   38.0670   24.7020 H   0  0  0  0  0  0  0  0  0  0  0  0
   30.5250   38.7570   26.1650 H   0  0  0  0  0  0  0  0  0  0  0  0
   31.4330   38.6840   30.9360 H   0  0  0  0  0  0  0  0  0  0  0  0
  1  2  2  0  0  0  0
  1 12  1  0  0  0  0
  1 19  1  0  0  0  0
  2 17  1  0  0  0  0
  2 31  1  0  0  0  0
  3 22  1  0  0  0  0
  3 32  1  0  0  0  0
  3 33  1  0  0  0  0
  3 34  1  0  0  0  0
  4 13  1  0  0  0  0
  4 17  2  0  0  0  0
  4 35  1  0  0  0  0
  5 14  2  0  0  0  0
  5 24  1  0  0  0  0
  5 36  1  0  0  0  0
  6  7  1  0  0  0  0
  6 16  1  0  0  0  0
  6 25  1  0  0  0  0
  6 37  1  6  0  0  0
  7 26  1  0  0  0  0
  7 38  1  0  0  0  0
  7 39  1  0  0  0  0
  8 16  1  0  0  0  0
  8 23  1  0  0  0  0
  8 24  2  0  0  0  0
  9 10  1  0  0  0  0
  9 21  2  0  0  0  0
  9 22  1  0  0  0  0
 10 11  2  0  0  0  0
 10 20  1  0  0  0  0
 11 14  1  0  0  0  0
 11 40  1  0  0  0  0
 12 13  2  0  0  0  0
 12 20  1  0  0  0  0
 13 41  1  0  0  0  0
 14 15  1  0  0  0  0
 15 22  1  0  0  0  0
 15 23  2  0  0  0  0
 16 42  1  0  0  0  0
 17 18  1  0  0  0  0
 25 43  1  0  0  0  0
 25 44  1  0  0  0  0
 25 45  1  0  0  0  0
 26 27  1  0  0  0  0
 26 30  1  0  0  0  0
 27 28  2  0  0  0  0
 28 29  1  0  0  0  0
 28 46  1  0  0  0  0
 29 30  2  0  0  0  0
M  END
$$$$
