p38a_2bb
 OpenBabel02232411163D
Structure written by MMmdl.
 44 46  0  0  0  0  0  0  0  0999 V2000
   38.2920   36.5400   17.1650 C   0  0  0  0  0  0  0  0  0  0  0  0
   34.4040   35.0660   21.1640 C   0  0  0  0  0  0  0  0  0  0  0  0
   37.5130   36.0770   18.2220 C   0  0  0  0  0  0  0  0  0  0  0  0
   33.7280   39.1360   23.6870 C   0  0  0  0  0  0  0  0  0  0  0  0
   32.4210   39.1670   25.8420 C   0  0  0  0  0  0  0  0  0  0  0  0
   34.5790   37.9400   21.3550 C   0  0  0  0  0  0  0  0  0  0  0  0
   35.0640   37.2800   20.1720 C   0  0  0  0  0  0  0  0  0  0  0  0
   37.6410   36.6960   15.9340 C   0  0  0  0  0  0  0  0  0  0  0  0
   36.2930   36.3880   15.7300 C   0  0  0  0  0  0  0  0  0  0  0  0
   35.5360   35.9100   16.8050 C   0  0  0  0  0  0  0  0  0  0  0  0
   34.0220   37.1760   22.4230 C   0  0  0  0  0  0  0  0  0  0  0  0
   34.6410   39.3460   21.5370 C   0  0  0  0  0  0  0  0  0  0  0  0
   34.9990   35.9310   20.1070 C   0  0  0  0  0  0  0  0  0  0  0  0
   36.1540   35.7450   18.0480 C   0  0  0  0  0  0  0  0  0  0  0  0
   33.3220   35.0220   23.4510 C   0  0  0  0  0  0  0  0  0  0  0  0
   38.0470   35.9460   19.4300 F   0  0  0  0  0  0  0  0  0  0  0  0
   35.4460   35.1080   19.0780 O   0  0  0  0  0  0  0  0  0  0  0  0
   34.2430   39.9540   22.6670 N   0  0  0  0  0  0  0  0  0  0  0  0
   34.3050   33.8600   21.1150 O   0  0  0  0  0  0  0  0  0  0  0  0
   33.9260   35.7800   22.3200 N   0  0  0  0  0  0  0  0  0  0  0  0
   33.5780   37.7720   23.5790 N   0  0  0  0  0  0  0  0  0  0  0  0
   33.4170   39.7510   24.8920 N   0  0  0  0  0  0  0  0  0  0  0  0
   39.3440   36.8080   17.2990 H   0  0  0  0  0  0  0  0  0  0  0  0
   31.6300   38.6090   25.2630 H   0  0  0  0  0  0  0  0  0  0  0  0
   35.4750   37.8990   19.3720 H   0  0  0  0  0  0  0  0  0  0  0  0
   35.8200   36.5310   14.7560 H   0  0  0  0  0  0  0  0  0  0  0  0
   34.4730   35.6870   16.6670 H   0  0  0  0  0  0  0  0  0  0  0  0
   35.0190   39.9910   20.7280 H   0  0  0  0  0  0  0  0  0  0  0  0
   33.8710   35.2500   24.4050 H   0  0  0  0  0  0  0  0  0  0  0  0
   32.2500   35.3310   23.5850 H   0  0  0  0  0  0  0  0  0  0  0  0
   33.3690   33.9200   23.2510 H   0  0  0  0  0  0  0  0  0  0  0  0
   33.5030   40.7850   24.9410 H   0  0  0  0  0  0  0  0  0  0  0  0
   38.3330   37.2010   14.9160 F   0  0  0  0  0  0  0  0  0  0  0  0
   33.0610   38.1920   26.8350 C   0  0  0  0  0  0  0  0  0  0  0  0
   31.9280   40.0280   26.3720 H   0  0  0  0  0  0  0  0  0  0  0  0
   32.2550   37.4740   27.1610 H   0  0  0  0  0  0  0  0  0  0  0  0
   33.8000   37.5540   26.2700 H   0  0  0  0  0  0  0  0  0  0  0  0
   35.0680   39.9500   27.6520 C   0  0  0  0  0  0  0  0  0  0  0  0
   33.8260   38.8940   28.2540 S   0  0  0  0  0  0  0  0  0  0  0  0
   32.8410   39.6480   29.0660 O   0  0  0  0  0  0  0  0  0  0  0  0
   34.4310   37.8080   29.0680 O   0  0  0  0  0  0  0  0  0  0  0  0
   35.6390   39.4890   26.8060 H   0  0  0  0  0  0  0  0  0  0  0  0
   34.6480   40.9150   27.2560 H   0  0  0  0  0  0  0  0  0  0  0  0
   35.8110   40.2320   28.4420 H   0  0  0  0  0  0  0  0  0  0  0  0
  1  3  2  0  0  0  0
  1  8  1  0  0  0  0
  1 23  1  0  0  0  0
  2 13  1  0  0  0  0
  2 19  2  0  0  0  0
  2 20  1  0  0  0  0
  3 14  1  0  0  0  0
  3 16  1  0  0  0  0
  4 18  2  0  0  0  0
  4 21  1  0  0  0  0
  4 22  1  0  0  0  0
  5 22  1  0  0  0  0
  5 24  1  0  0  0  0
  5 34  1  0  0  0  0
  5 35  1  0  0  0  0
  6  7  1  0  0  0  0
  6 11  1  0  0  0  0
  6 12  2  0  0  0  0
  7 13  2  0  0  0  0
  7 25  1  0  0  0  0
  8  9  2  0  0  0  0
  8 33  1  0  0  0  0
  9 10  1  0  0  0  0
  9 26  1  0  0  0  0
 10 14  2  0  0  0  0
 10 27  1  0  0  0  0
 11 20  1  0  0  0  0
 11 21  2  0  0  0  0
 12 18  1  0  0  0  0
 12 28  1  0  0  0  0
 13 17  1  0  0  0  0
 14 17  1  0  0  0  0
 15 20  1  0  0  0  0
 15 29  1  0  0  0  0
 15 30  1  0  0  0  0
 15 31  1  0  0  0  0
 22 32  1  0  0  0  0
 34 36  1  0  0  0  0
 34 37  1  0  0  0  0
 34 39  1  0  0  0  0
 38 39  1  0  0  0  0
 38 42  1  0  0  0  0
 38 43  1  0  0  0  0
 38 44  1  0  0  0  0
 39 40  2  0  0  0  0
 39 41  2  0  0  0  0
M  END
$$$$
