p38a_2f
 OpenBabel02232411163D
Structure written by MMmdl.
 46 49  0  0  0  0  0  0  0  0999 V2000
   32.3840   39.7230   27.4340 C   0  0  0  0  0  0  0  0  0  0  0  0
   33.2820   40.6000   28.3140 C   0  0  0  0  0  0  0  0  0  0  0  0
   35.2090   39.2180   27.9260 C   0  0  0  0  0  0  0  0  0  0  0  0
   34.4120   38.2130   27.0940 C   0  0  0  0  0  0  0  0  0  0  0  0
   37.2090   35.9490   16.2650 C   0  0  0  0  0  0  0  0  0  0  0  0
   34.3650   39.8580   28.9120 O   0  0  0  0  0  0  0  0  0  0  0  0
   34.1270   35.2000   21.1850 C   0  0  0  0  0  0  0  0  0  0  0  0
   35.9910   35.7010   16.9010 C   0  0  0  0  0  0  0  0  0  0  0  0
   33.8010   39.1200   24.0190 C   0  0  0  0  0  0  0  0  0  0  0  0
   33.1680   38.8470   26.4370 C   0  0  0  0  0  0  0  0  0  0  0  0
   34.3300   38.0570   21.5330 C   0  0  0  0  0  0  0  0  0  0  0  0
   34.6390   37.4770   20.2620 C   0  0  0  0  0  0  0  0  0  0  0  0
   38.3960   36.2200   16.9470 C   0  0  0  0  0  0  0  0  0  0  0  0
   38.3600   36.2580   18.3440 C   0  0  0  0  0  0  0  0  0  0  0  0
   37.1730   36.0140   19.0370 C   0  0  0  0  0  0  0  0  0  0  0  0
   33.9360   37.2240   22.6240 C   0  0  0  0  0  0  0  0  0  0  0  0
   34.4170   39.4560   21.7800 C   0  0  0  0  0  0  0  0  0  0  0  0
   34.5490   36.1300   20.1170 C   0  0  0  0  0  0  0  0  0  0  0  0
   36.0070   35.7580   18.3010 C   0  0  0  0  0  0  0  0  0  0  0  0
   33.4100   35.0000   23.6070 C   0  0  0  0  0  0  0  0  0  0  0  0
   35.0680   35.5290   16.3430 H   0  0  0  0  0  0  0  0  0  0  0  0
   34.7750   35.4780   18.8990 O   0  0  0  0  0  0  0  0  0  0  0  0
   34.1710   40.0010   22.9750 N   0  0  0  0  0  0  0  0  0  0  0  0
   34.0240   33.9960   21.0910 O   0  0  0  0  0  0  0  0  0  0  0  0
   33.8200   35.8400   22.4470 N   0  0  0  0  0  0  0  0  0  0  0  0
   33.6730   37.7510   23.8650 N   0  0  0  0  0  0  0  0  0  0  0  0
   33.5350   39.6750   25.2430 N   0  0  0  0  0  0  0  0  0  0  0  0
   31.7780   39.0390   28.0800 H   0  0  0  0  0  0  0  0  0  0  0  0
   31.6760   40.3810   26.8740 H   0  0  0  0  0  0  0  0  0  0  0  0
   33.7130   41.4410   27.7260 H   0  0  0  0  0  0  0  0  0  0  0  0
   32.7250   40.9750   29.2040 H   0  0  0  0  0  0  0  0  0  0  0  0
   35.9690   38.7090   28.5630 H   0  0  0  0  0  0  0  0  0  0  0  0
   35.6660   40.0010   27.2810 H   0  0  0  0  0  0  0  0  0  0  0  0
   35.0740   37.7650   26.3130 H   0  0  0  0  0  0  0  0  0  0  0  0
   34.0570   37.3750   27.7480 H   0  0  0  0  0  0  0  0  0  0  0  0
   37.2360   35.9480   14.9350 F   0  0  0  0  0  0  0  0  0  0  0  0
   32.4880   38.0160   26.0830 H   0  0  0  0  0  0  0  0  0  0  0  0
   34.9630   38.1360   19.4500 H   0  0  0  0  0  0  0  0  0  0  0  0
   39.2740   36.4860   18.8940 H   0  0  0  0  0  0  0  0  0  0  0  0
   37.1570   36.0570   20.1240 H   0  0  0  0  0  0  0  0  0  0  0  0
   34.6970   40.1340   20.9570 H   0  0  0  0  0  0  0  0  0  0  0  0
   34.1330   35.1380   24.4560 H   0  0  0  0  0  0  0  0  0  0  0  0
   32.3890   35.3090   23.9600 H   0  0  0  0  0  0  0  0  0  0  0  0
   33.3870   33.9190   23.3160 H   0  0  0  0  0  0  0  0  0  0  0  0
   33.6520   40.6970   25.3790 H   0  0  0  0  0  0  0  0  0  0  0  0
   39.3210   36.4410   16.4230 H   0  0  0  0  0  0  0  0  0  0  0  0
  1  2  1  0  0  0  0
  1 10  1  0  0  0  0
  1 28  1  0  0  0  0
  1 29  1  0  0  0  0
  2  6  1  0  0  0  0
  2 30  1  0  0  0  0
  2 31  1  0  0  0  0
  3  4  1  0  0  0  0
  3  6  1  0  0  0  0
  3 32  1  0  0  0  0
  3 33  1  0  0  0  0
  4 10  1  0  0  0  0
  4 34  1  0  0  0  0
  4 35  1  0  0  0  0
  5  8  2  0  0  0  0
  5 13  1  0  0  0  0
  5 36  1  0  0  0  0
  7 18  1  0  0  0  0
  7 24  2  0  0  0  0
  7 25  1  0  0  0  0
  8 19  1  0  0  0  0
  8 21  1  0  0  0  0
  9 23  2  0  0  0  0
  9 26  1  0  0  0  0
  9 27  1  0  0  0  0
 10 27  1  0  0  0  0
 10 37  1  0  0  0  0
 11 12  1  0  0  0  0
 11 16  1  0  0  0  0
 11 17  2  0  0  0  0
 12 18  2  0  0  0  0
 12 38  1  0  0  0  0
 13 14  2  0  0  0  0
 13 46  1  0  0  0  0
 14 15  1  0  0  0  0
 14 39  1  0  0  0  0
 15 19  2  0  0  0  0
 15 40  1  0  0  0  0
 16 25  1  0  0  0  0
 16 26  2  0  0  0  0
 17 23  1  0  0  0  0
 17 41  1  0  0  0  0
 18 22  1  0  0  0  0
 19 22  1  0  0  0  0
 20 25  1  0  0  0  0
 20 42  1  0  0  0  0
 20 43  1  0  0  0  0
 20 44  1  0  0  0  0
 27 45  1  0  0  0  0
M  END
$$$$
