p38a_2z
 OpenBabel02232411163D
Structure written by MMmdl.
 45 47  0  0  0  0  0  0  0  0999 V2000
   38.2970   36.5850   17.0940 C   0  0  0  0  0  0  0  0  0  0  0  0
   34.5600   35.0160   21.0900 C   0  0  0  0  0  0  0  0  0  0  0  0
   37.4950   36.1130   18.1290 C   0  0  0  0  0  0  0  0  0  0  0  0
   33.9940   38.9750   23.8250 C   0  0  0  0  0  0  0  0  0  0  0  0
   33.2590   38.8410   26.2880 C   0  0  0  0  0  0  0  0  0  0  0  0
   34.6960   37.8840   21.3800 C   0  0  0  0  0  0  0  0  0  0  0  0
   35.0830   37.2820   20.1340 C   0  0  0  0  0  0  0  0  0  0  0  0
   37.6680   36.7750   15.8560 C   0  0  0  0  0  0  0  0  0  0  0  0
   36.3190   36.4960   15.6250 C   0  0  0  0  0  0  0  0  0  0  0  0
   35.5380   36.0070   16.6770 C   0  0  0  0  0  0  0  0  0  0  0  0
   34.3090   37.0610   22.4780 C   0  0  0  0  0  0  0  0  0  0  0  0
   34.6850   39.2890   21.6000 C   0  0  0  0  0  0  0  0  0  0  0  0
   35.0390   35.9340   20.0230 C   0  0  0  0  0  0  0  0  0  0  0  0
   36.1330   35.8060   17.9260 C   0  0  0  0  0  0  0  0  0  0  0  0
   33.8560   34.8320   23.5060 C   0  0  0  0  0  0  0  0  0  0  0  0
   38.0090   35.9490   19.3420 F   0  0  0  0  0  0  0  0  0  0  0  0
   35.3890   35.1580   18.9190 O   0  0  0  0  0  0  0  0  0  0  0  0
   34.3520   39.8460   22.7720 N   0  0  0  0  0  0  0  0  0  0  0  0
   34.4250   33.8170   20.9800 O   0  0  0  0  0  0  0  0  0  0  0  0
   34.2440   35.6660   22.3350 N   0  0  0  0  0  0  0  0  0  0  0  0
   33.9660   37.5980   23.6930 N   0  0  0  0  0  0  0  0  0  0  0  0
   33.5840   39.5530   24.9990 N   0  0  0  0  0  0  0  0  0  0  0  0
   39.3510   36.8300   17.2490 H   0  0  0  0  0  0  0  0  0  0  0  0
   32.6260   39.9040   27.2080 C   0  0  0  0  0  0  0  0  0  0  0  0
   35.4060   37.9350   19.3220 H   0  0  0  0  0  0  0  0  0  0  0  0
   35.8630   36.6690   14.6490 H   0  0  0  0  0  0  0  0  0  0  0  0
   34.4750   35.7980   16.5180 H   0  0  0  0  0  0  0  0  0  0  0  0
   34.9530   39.9720   20.7760 H   0  0  0  0  0  0  0  0  0  0  0  0
   34.4780   35.1090   24.4010 H   0  0  0  0  0  0  0  0  0  0  0  0
   32.7750   35.0020   23.7550 H   0  0  0  0  0  0  0  0  0  0  0  0
   34.0160   33.7460   23.2780 H   0  0  0  0  0  0  0  0  0  0  0  0
   33.6700   40.5890   25.0930 H   0  0  0  0  0  0  0  0  0  0  0  0
   38.3830   37.2860   14.8570 F   0  0  0  0  0  0  0  0  0  0  0  0
   32.2470   37.6550   26.1130 C   0  0  0  0  0  0  0  0  0  0  0  0
   34.5600   38.3000   26.9100 C   0  0  0  0  0  0  0  0  0  0  0  0
   31.3090   37.8530   25.0500 O   0  0  0  0  0  0  0  0  0  0  0  0
   31.8040   37.7360   24.2090 H   0  0  0  0  0  0  0  0  0  0  0  0
   32.7980   36.6990   25.9420 H   0  0  0  0  0  0  0  0  0  0  0  0
   31.6020   37.5760   27.0200 H   0  0  0  0  0  0  0  0  0  0  0  0
   34.3380   37.8370   27.9000 H   0  0  0  0  0  0  0  0  0  0  0  0
   35.0300   37.5260   26.2620 H   0  0  0  0  0  0  0  0  0  0  0  0
   35.2920   39.1220   27.0720 H   0  0  0  0  0  0  0  0  0  0  0  0
   32.3390   39.4450   28.1810 H   0  0  0  0  0  0  0  0  0  0  0  0
   33.3460   40.7250   27.4310 H   0  0  0  0  0  0  0  0  0  0  0  0
   31.7230   40.3370   26.7270 H   0  0  0  0  0  0  0  0  0  0  0  0
  1  3  2  0  0  0  0
  1  8  1  0  0  0  0
  1 23  1  0  0  0  0
  2 13  1  0  0  0  0
  2 19  2  0  0  0  0
  2 20  1  0  0  0  0
  3 14  1  0  0  0  0
  3 16  1  0  0  0  0
  4 18  2  0  0  0  0
  4 21  1  0  0  0  0
  4 22  1  0  0  0  0
  5 22  1  0  0  0  0
  5 24  1  0  0  0  0
  5 34  1  0  0  0  0
  5 35  1  0  0  0  0
  6  7  1  0  0  0  0
  6 11  1  0  0  0  0
  6 12  2  0  0  0  0
  7 13  2  0  0  0  0
  7 25  1  0  0  0  0
  8  9  2  0  0  0  0
  8 33  1  0  0  0  0
  9 10  1  0  0  0  0
  9 26  1  0  0  0  0
 10 14  2  0  0  0  0
 10 27  1  0  0  0  0
 11 20  1  0  0  0  0
 11 21  2  0  0  0  0
 12 18  1  0  0  0  0
 12 28  1  0  0  0  0
 13 17  1  0  0  0  0
 14 17  1  0  0  0  0
 15 20  1  0  0  0  0
 15 29  1  0  0  0  0
 15 30  1  0  0  0  0
 15 31  1  0  0  0  0
 22 32  1  0  0  0  0
 24 43  1  0  0  0  0
 24 44  1  0  0  0  0
 24 45  1  0  0  0  0
 34 36  1  0  0  0  0
 34 38  1  0  0  0  0
 34 39  1  0  0  0  0
 35 40  1  0  0  0  0
 35 41  1  0  0  0  0
 35 42  1  0  0  0  0
 36 37  1  0  0  0  0
M  END
$$$$
