18637-1
 OpenBabel02232411163D
Structure written by MMmdl.
 53 54  0  0  0  0  0  0  0  0999 V2000
   23.2060   10.8220   29.0820 C   0  0  0  0  0  0  0  0  0  0  0  0
   23.4690   11.0540   30.5550 C   0  0  0  0  0  0  0  0  0  0  0  0
   22.2000   11.1560   31.3040 O   0  0  0  0  0  0  0  0  0  0  0  0
   21.5370   10.0250   31.6390 C   0  0  0  0  0  0  0  0  0  0  0  0
   21.9940    8.8310   31.2000 N   0  0  0  0  0  0  0  0  0  0  0  0
   21.2400    7.7060   31.4980 C   0  0  0  0  0  0  0  0  0  0  0  0
   20.0830    7.7590   32.2710 C   0  0  0  0  0  0  0  0  0  0  0  0
   19.6270    9.0150   32.7520 C   0  0  0  0  0  0  0  0  0  0  0  0
   18.4820    9.0720   33.5060 N   0  0  0  0  0  0  0  0  0  0  0  0
   20.3580   10.2020   32.4230 C   0  0  0  0  0  0  0  0  0  0  0  0
   19.9680   11.5060   32.7930 C   0  0  0  0  0  0  0  0  0  0  0  0
   19.6960   12.6030   33.0540 N   0  0  0  0  0  0  0  0  0  0  0  0
   21.7870    6.5490   30.9080 N   0  0  0  0  0  0  0  0  0  0  0  0
   21.1810    5.2750   30.8080 C   0  0  0  0  0  0  0  0  0  0  0  0
   20.0990    5.0280   31.2980 O   0  0  0  0  0  0  0  0  0  0  0  0
   21.9900    4.2930   29.9700 C   0  0  0  0  0  0  0  0  0  0  0  0
   23.3190    3.9710   30.5810 C   0  0  0  0  0  0  0  0  0  0  0  0
   24.4480    4.7940   30.3660 C   0  0  0  0  0  0  0  0  0  0  0  0
   24.1860    5.8690   29.5330 O   0  0  0  0  0  0  0  0  0  0  0  0
   25.1780    6.9270   29.4240 C   0  0  0  0  0  0  0  0  0  0  0  0
   25.6990    4.5230   30.9340 C   0  0  0  0  0  0  0  0  0  0  0  0
   25.8550    3.3900   31.7390 C   0  0  0  0  0  0  0  0  0  0  0  0
   24.7160    2.5570   31.9650 C   0  0  0  0  0  0  0  0  0  0  0  0
   23.4810    2.8360   31.3870 C   0  0  0  0  0  0  0  0  0  0  0  0
   24.9440    1.5210   32.8620 O   0  0  0  0  0  0  0  0  0  0  0  0
   24.2280    0.2810   32.6170 C   0  0  0  0  0  0  0  0  0  0  0  0
   27.0780    3.0320   32.3680 N   0  0  0  0  0  0  0  0  0  0  0  0
   28.3610    3.5650   32.0850 C   0  0  0  0  0  0  0  0  0  0  0  0
   28.5210    4.4010   31.2130 O   0  0  0  0  0  0  0  0  0  0  0  0
   29.4550    3.0000   32.9370 C   0  0  0  0  0  0  0  0  0  0  0  0
   22.7840    9.8060   28.9000 H   0  0  0  0  0  0  0  0  0  0  0  0
   22.5000   11.5800   28.6720 H   0  0  0  0  0  0  0  0  0  0  0  0
   24.1680   10.9060   28.5190 H   0  0  0  0  0  0  0  0  0  0  0  0
   23.8760   12.0750   30.7540 H   0  0  0  0  0  0  0  0  0  0  0  0
   24.1020   10.2540   31.0010 H   0  0  0  0  0  0  0  0  0  0  0  0
   19.5110    6.8570   32.4950 H   0  0  0  0  0  0  0  0  0  0  0  0
   18.0980    9.9610   33.8240 H   0  0  0  0  0  0  0  0  0  0  0  0
   17.9780    8.2060   33.7800 H   0  0  0  0  0  0  0  0  0  0  0  0
   22.7090    6.6950   30.4230 H   0  0  0  0  0  0  0  0  0  0  0  0
   21.3930    3.3530   29.8460 H   0  0  0  0  0  0  0  0  0  0  0  0
   22.1490    4.7500   28.9560 H   0  0  0  0  0  0  0  0  0  0  0  0
   25.4330    7.3240   30.4290 H   0  0  0  0  0  0  0  0  0  0  0  0
   26.0650    6.5470   28.8760 H   0  0  0  0  0  0  0  0  0  0  0  0
   24.6200    7.6830   28.8230 H   0  0  0  0  0  0  0  0  0  0  0  0
   26.5490    5.1870   30.7450 H   0  0  0  0  0  0  0  0  0  0  0  0
   22.6360    2.1650   31.5640 H   0  0  0  0  0  0  0  0  0  0  0  0
   24.8050   -0.4400   33.2430 H   0  0  0  0  0  0  0  0  0  0  0  0
   23.1840    0.3860   32.9830 H   0  0  0  0  0  0  0  0  0  0  0  0
   24.2720    0.0060   31.5420 H   0  0  0  0  0  0  0  0  0  0  0  0
   27.0260    2.2280   33.0220 H   0  0  0  0  0  0  0  0  0  0  0  0
   30.3290    3.7010   32.9740 H   0  0  0  0  0  0  0  0  0  0  0  0
   29.8200    2.0270   32.5140 H   0  0  0  0  0  0  0  0  0  0  0  0
   29.1370    2.8100   33.9930 H   0  0  0  0  0  0  0  0  0  0  0  0
  1  2  1  0  0  0  0
  1 31  1  0  0  0  0
  1 32  1  0  0  0  0
  1 33  1  0  0  0  0
  2  3  1  0  0  0  0
  2 34  1  0  0  0  0
  2 35  1  0  0  0  0
  3  4  1  0  0  0  0
  4 10  2  0  0  0  0
  4  5  1  0  0  0  0
  5  6  2  0  0  0  0
  6  7  1  0  0  0  0
  6 13  1  0  0  0  0
  7  8  2  0  0  0  0
  7 36  1  0  0  0  0
  8  9  1  0  0  0  0
  8 10  1  0  0  0  0
  9 37  1  0  0  0  0
  9 38  1  0  0  0  0
 10 11  1  0  0  0  0
 11 12  3  0  0  0  0
 13 14  1  0  0  0  0
 13 39  1  0  0  0  0
 14 15  2  0  0  0  0
 14 16  1  0  0  0  0
 16 17  1  0  0  0  0
 16 40  1  0  0  0  0
 16 41  1  0  0  0  0
 17 24  2  0  0  0  0
 17 18  1  0  0  0  0
 18 19  1  0  0  0  0
 18 21  2  0  0  0  0
 19 20  1  0  0  0  0
 20 42  1  0  0  0  0
 20 43  1  0  0  0  0
 20 44  1  0  0  0  0
 21 22  1  0  0  0  0
 21 45  1  0  0  0  0
 22 23  2  0  0  0  0
 22 27  1  0  0  0  0
 23 24  1  0  0  0  0
 23 25  1  0  0  0  0
 24 46  1  0  0  0  0
 25 26  1  0  0  0  0
 26 47  1  0  0  0  0
 26 48  1  0  0  0  0
 26 49  1  0  0  0  0
 27 28  1  0  0  0  0
 27 50  1  0  0  0  0
 28 29  2  0  0  0  0
 28 30  1  0  0  0  0
 30 51  1  0  0  0  0
 30 52  1  0  0  0  0
 30 53  1  0  0  0  0
M  END
$$$$
