CAT-17e
 OpenBabel02232411143D
Structure written by MMmdl.
 46 49  0  0  1  0  0  0  0  0999 V2000
   15.0150    4.9210    1.7780 C   0  0  0  0  0  0  0  0  0  0  0  0
   15.7550    3.9000    1.0570 O   0  0  0  0  0  0  0  0  0  0  0  0
   15.4420    3.6850   -0.2610 C   0  0  0  0  0  0  0  0  0  0  0  0
   14.9130    4.6250   -1.1770 C   0  0  0  0  0  0  0  0  0  0  0  0
   14.7330    4.3090   -2.4800 N   0  0  0  0  0  0  0  0  0  0  0  0
   15.0190    3.0550   -2.9080 C   0  0  0  0  0  0  0  0  0  0  0  0
   15.4900    2.0480   -2.0370 C   0  0  0  0  0  0  0  0  0  0  0  0
   15.6710    0.6420   -2.4510 C   0  0  0  0  0  0  0  0  0  0  0  0
   16.3480    0.2680   -3.6230 C   0  0  0  0  0  0  0  0  0  0  0  0
   16.5670   -1.0840   -3.8980 C   0  0  0  0  0  0  0  0  0  0  0  0
   16.1080   -2.0820   -3.0300 C   0  0  0  0  0  0  0  0  0  0  0  0
   15.3860   -1.7170   -1.8880 C   0  0  0  0  0  0  0  0  0  0  0  0
   14.8140   -2.7350   -0.9240 C   0  0  1  0  0  0  0  0  0  0  0  0
   15.0440   -4.1980   -1.2620 C   0  0  0  0  0  0  0  0  0  0  0  0
   16.2500   -4.9420   -0.7150 C   0  0  0  0  0  0  0  0  0  0  0  0
   14.8690   -5.2760   -0.1960 C   0  0  0  0  0  0  0  0  0  0  0  0
   15.2640   -2.3840    0.4760 N   0  3  0  0  0  0  0  0  0  0  0  0
   14.1750   -2.3950    1.3540 C   0  0  0  0  0  0  0  0  0  0  0  0
   14.3140   -2.4430    2.7100 N   0  0  0  0  0  0  0  0  0  0  0  0
   12.9840   -2.4270    0.6310 N   0  0  0  0  0  0  0  0  0  0  0  0
   11.6510   -2.2850    1.2490 C   0  0  0  0  0  0  0  0  0  0  0  0
   13.2600   -2.5560   -0.8150 C   0  0  0  0  0  0  0  0  0  0  0  0
   12.3960   -2.5230   -1.6300 O   0  0  0  0  0  0  0  0  0  0  0  0
   15.1640   -0.3610   -1.6100 C   0  0  0  0  0  0  0  0  0  0  0  0
   15.7330    2.3850   -0.7000 C   0  0  0  0  0  0  0  0  0  0  0  0
   15.1830    4.5860    2.8320 H   0  0  0  0  0  0  0  0  0  0  0  0
   15.4710    5.9090    1.5720 H   0  0  0  0  0  0  0  0  0  0  0  0
   13.9460    4.8820    1.5000 H   0  0  0  0  0  0  0  0  0  0  0  0
   14.6200    5.6380   -0.8670 H   0  0  0  0  0  0  0  0  0  0  0  0
   14.8480    2.8410   -3.9760 H   0  0  0  0  0  0  0  0  0  0  0  0
   16.7120    1.0270   -4.3220 H   0  0  0  0  0  0  0  0  0  0  0  0
   17.1190   -1.3670   -4.8010 H   0  0  0  0  0  0  0  0  0  0  0  0
   16.3170   -3.1310   -3.2440 H   0  0  0  0  0  0  0  0  0  0  0  0
   14.7090   -4.4430   -2.2860 H   0  0  0  0  0  0  0  0  0  0  0  0
   16.7820   -5.6340   -1.3640 H   0  0  0  0  0  0  0  0  0  0  0  0
   16.9540   -4.4150   -0.0670 H   0  0  0  0  0  0  0  0  0  0  0  0
   14.6050   -4.9860    0.8280 H   0  0  0  0  0  0  0  0  0  0  0  0
   14.3900   -6.2200   -0.4880 H   0  0  0  0  0  0  0  0  0  0  0  0
   16.1980   -2.7050    0.8480 H   0  0  0  0  0  0  0  0  0  0  0  0
   13.5910   -2.0340    3.3520 H   0  0  0  0  0  0  0  0  0  0  0  0
   10.9040   -2.8800    0.6570 H   0  0  0  0  0  0  0  0  0  0  0  0
   11.6620   -2.6780    2.3010 H   0  0  0  0  0  0  0  0  0  0  0  0
   11.3580   -1.2030    1.2560 H   0  0  0  0  0  0  0  0  0  0  0  0
   14.5990   -0.0890   -0.7210 H   0  0  0  0  0  0  0  0  0  0  0  0
   16.1120    1.6460    0.0080 H   0  0  0  0  0  0  0  0  0  0  0  0
   15.2890   -2.3750    3.1170 H   0  0  0  0  0  0  0  0  0  0  0  0
  1  2  1  0  0  0  0
  1 26  1  0  0  0  0
  1 27  1  0  0  0  0
  1 28  1  0  0  0  0
  2  3  1  0  0  0  0
  3  4  2  0  0  0  0
  3 25  1  0  0  0  0
  4  5  1  0  0  0  0
  4 29  1  0  0  0  0
  5  6  2  0  0  0  0
  6  7  1  0  0  0  0
  6 30  1  0  0  0  0
  7  8  1  0  0  0  0
  7 25  2  0  0  0  0
  8  9  2  0  0  0  0
  8 24  1  0  0  0  0
  9 10  1  0  0  0  0
  9 31  1  0  0  0  0
 10 11  2  0  0  0  0
 10 32  1  0  0  0  0
 11 12  1  0  0  0  0
 11 33  1  0  0  0  0
 12 24  2  0  0  0  0
 13 12  1  6  0  0  0
 13 14  1  0  0  0  0
 13 17  1  0  0  0  0
 13 22  1  0  0  0  0
 14 15  1  0  0  0  0
 14 16  1  0  0  0  0
 14 34  1  0  0  0  0
 15 16  1  0  0  0  0
 15 35  1  0  0  0  0
 15 36  1  0  0  0  0
 16 37  1  0  0  0  0
 16 38  1  0  0  0  0
 17 18  2  0  0  0  0
 17 39  1  0  0  0  0
 18 19  1  0  0  0  0
 18 20  1  0  0  0  0
 19 40  1  0  0  0  0
 19 46  1  0  0  0  0
 20 21  1  0  0  0  0
 20 22  1  0  0  0  0
 21 41  1  0  0  0  0
 21 42  1  0  0  0  0
 21 43  1  0  0  0  0
 22 23  2  0  0  0  0
 24 44  1  0  0  0  0
 25 45  1  0  0  0  0
M  CHG  1  17   1
M  END
$$$$
