18636-1 flip
                    3D
 Schrodinger Suite 2022-3.
 38 39  0  0  1  0  0  0  0  0999 V2000
   25.5640    3.4430   30.7380 C   0  0  0  0  0  0  0  0  0  0  0  0
   24.1750    3.2740   30.7810 C   0  0  0  0  0  0  0  0  0  0  0  0
   23.3050    4.1960   30.1780 C   0  0  0  0  0  0  0  0  0  0  0  0
   23.8680    5.2990   29.5070 C   0  0  0  0  0  0  0  0  0  0  0  0
   25.2480    5.4890   29.5190 C   0  0  0  0  0  0  0  0  0  0  0  0
   26.1110    4.5660   30.1140 C   0  0  0  0  0  0  0  0  0  0  0  0
   21.8120    4.0570   30.2320 C   0  0  0  0  0  0  0  0  0  0  0  0
   21.0380    5.1480   30.9550 C   0  0  0  0  0  0  0  0  0  0  0  0
   21.7830    6.1820   31.5680 N   0  0  0  0  0  0  0  0  0  0  0  0
   21.2180    7.4540   31.8860 C   0  0  0  0  0  0  0  0  0  0  0  0
   19.8250    5.1280   31.0200 O   0  0  0  0  0  0  0  0  0  0  0  0
   22.0260    8.5050   31.4980 N   0  0  0  0  0  0  0  0  0  0  0  0
   21.5780    9.7620   31.7360 C   0  0  0  0  0  0  0  0  0  0  0  0
   20.3600   10.0650   32.4200 C   0  0  0  0  0  0  0  0  0  0  0  0
   19.5610    8.9510   32.8240 C   0  0  0  0  0  0  0  0  0  0  0  0
   19.9980    7.6310   32.5200 C   0  0  0  0  0  0  0  0  0  0  0  0
   18.3780    9.1130   33.4960 N   0  0  0  0  0  0  0  0  0  0  0  0
   19.9950   11.4100   32.6420 C   0  0  0  0  0  0  0  0  0  0  0  0
   22.2920   10.8190   31.2990 O   0  0  0  0  0  0  0  0  0  0  0  0
   23.5660   10.5910   30.5780 C   0  0  0  0  0  0  0  0  0  0  0  0
   23.3120   10.1650   29.1470 C   0  0  0  0  0  0  0  0  0  0  0  0
   19.7370   12.5310   32.7920 N   0  0  0  0  0  0  0  0  0  0  0  0
   26.2340    2.7060   31.2040 H   0  0  0  0  0  0  0  0  0  0  0  0
   23.2210    6.0260   29.0010 H   0  0  0  0  0  0  0  0  0  0  0  0
   19.3620    6.7870   32.7830 H   0  0  0  0  0  0  0  0  0  0  0  0
   21.5340    3.0780   30.7210 H   0  0  0  0  0  0  0  0  0  0  0  0
   21.4110    4.0290   29.1810 H   0  0  0  0  0  0  0  0  0  0  0  0
   22.8130    6.1960   31.4620 H   0  0  0  0  0  0  0  0  0  0  0  0
   17.8340    8.2800   33.7990 H   0  0  0  0  0  0  0  0  0  0  0  0
   18.0060   10.0360   33.7200 H   0  0  0  0  0  0  0  0  0  0  0  0
   24.1800    9.8500   31.1380 H   0  0  0  0  0  0  0  0  0  0  0  0
   23.9860   11.6250   30.6430 H   0  0  0  0  0  0  0  0  0  0  0  0
   24.2790   10.1960   28.5840 H   0  0  0  0  0  0  0  0  0  0  0  0
   22.9240    9.1200   29.0970 H   0  0  0  0  0  0  0  0  0  0  0  0
   22.5910   10.8440   28.6390 H   0  0  0  0  0  0  0  0  0  0  0  0
   27.1990    4.7110   30.1060 H   0  0  0  0  0  0  0  0  0  0  0  0
   25.9720    7.0770   28.7500 Br  0  0  0  0  0  0  0  0  0  0  0  0
   23.5240    1.7390   31.7100 Br  0  0  0  0  0  0  0  0  0  0  0  0
  1  2  1  0  0  0  0
  1  6  2  0  0  0  0
  1 23  1  0  0  0  0
  2  3  2  0  0  0  0
  2 38  1  0  0  0  0
  3  4  1  0  0  0  0
  3  7  1  0  0  0  0
  4  5  2  0  0  0  0
  4 24  1  0  0  0  0
  5  6  1  0  0  0  0
  5 37  1  0  0  0  0
  6 36  1  0  0  0  0
  7  8  1  0  0  0  0
  7 26  1  0  0  0  0
  7 27  1  0  0  0  0
  8  9  1  0  0  0  0
  8 11  2  0  0  0  0
  9 10  1  0  0  0  0
  9 28  1  0  0  0  0
 10 12  1  0  0  0  0
 10 16  2  0  0  0  0
 12 13  2  0  0  0  0
 13 14  1  0  0  0  0
 13 19  1  0  0  0  0
 14 15  2  0  0  0  0
 14 18  1  0  0  0  0
 15 16  1  0  0  0  0
 15 17  1  0  0  0  0
 16 25  1  0  0  0  0
 17 29  1  0  0  0  0
 17 30  1  0  0  0  0
 18 22  3  0  0  0  0
 19 20  1  0  0  0  0
 20 21  1  0  0  0  0
 20 31  1  0  0  0  0
 20 32  1  0  0  0  0
 21 33  1  0  0  0  0
 21 34  1  0  0  0  0
 21 35  1  0  0  0  0
M  END
$$$$
