18626-1
                    3D
 Schrodinger Suite 2022-3.
 38 39  0  0  1  0  0  0  0  0999 V2000
   25.9460    4.7030   30.7340 C   0  0  0  0  0  0  0  0  0  0  0  0
   24.6630    4.8170   30.1890 C   0  0  0  0  0  0  0  0  0  0  0  0
   23.5950    4.0830   30.7280 C   0  0  0  0  0  0  0  0  0  0  0  0
   23.8230    3.2190   31.8100 C   0  0  0  0  0  0  0  0  0  0  0  0
   25.1070    3.1430   32.3530 C   0  0  0  0  0  0  0  0  0  0  0  0
   26.1810    3.8650   31.8270 C   0  0  0  0  0  0  0  0  0  0  0  0
   22.2050    4.2190   30.1660 C   0  0  0  0  0  0  0  0  0  0  0  0
   21.3580    5.2100   30.9500 C   0  0  0  0  0  0  0  0  0  0  0  0
   21.8840    6.5250   30.9350 N   0  0  0  0  0  0  0  0  0  0  0  0
   21.3050    7.6850   31.5030 C   0  0  0  0  0  0  0  0  0  0  0  0
   20.3150    4.9300   31.4980 O   0  0  0  0  0  0  0  0  0  0  0  0
   22.0340    8.8200   31.1870 N   0  0  0  0  0  0  0  0  0  0  0  0
   21.5590   10.0110   31.6190 C   0  0  0  0  0  0  0  0  0  0  0  0
   20.3750   10.1720   32.4010 C   0  0  0  0  0  0  0  0  0  0  0  0
   19.6590    8.9770   32.7310 C   0  0  0  0  0  0  0  0  0  0  0  0
   20.1450    7.7230   32.2700 C   0  0  0  0  0  0  0  0  0  0  0  0
   18.5030    9.0270   33.4680 N   0  0  0  0  0  0  0  0  0  0  0  0
   19.9690   11.4720   32.7690 C   0  0  0  0  0  0  0  0  0  0  0  0
   22.2040   11.1500   31.2900 O   0  0  0  0  0  0  0  0  0  0  0  0
   23.4800   11.0790   30.5470 C   0  0  0  0  0  0  0  0  0  0  0  0
   23.2300   10.8460   29.0720 C   0  0  0  0  0  0  0  0  0  0  0  0
   19.6880   12.5660   33.0300 N   0  0  0  0  0  0  0  0  0  0  0  0
   26.7710    5.2770   30.3000 H   0  0  0  0  0  0  0  0  0  0  0  0
   23.0150    2.6040   32.2110 H   0  0  0  0  0  0  0  0  0  0  0  0
   19.5930    6.8110   32.5060 H   0  0  0  0  0  0  0  0  0  0  0  0
   21.7000    3.2160   30.1830 H   0  0  0  0  0  0  0  0  0  0  0  0
   22.2520    4.5640   29.1000 H   0  0  0  0  0  0  0  0  0  0  0  0
   22.7800    6.6870   30.4300 H   0  0  0  0  0  0  0  0  0  0  0  0
   18.1090    9.9160   33.7770 H   0  0  0  0  0  0  0  0  0  0  0  0
   18.0050    8.1600   33.7460 H   0  0  0  0  0  0  0  0  0  0  0  0
   24.1290   10.2930   30.9950 H   0  0  0  0  0  0  0  0  0  0  0  0
   23.8600   12.1100   30.7530 H   0  0  0  0  0  0  0  0  0  0  0  0
   24.1840   11.0000   28.5090 H   0  0  0  0  0  0  0  0  0  0  0  0
   22.8820    9.8040   28.8790 H   0  0  0  0  0  0  0  0  0  0  0  0
   22.4740   11.5570   28.6700 H   0  0  0  0  0  0  0  0  0  0  0  0
   24.5140    5.4830   29.3350 H   0  0  0  0  0  0  0  0  0  0  0  0
   27.1850    3.7820   32.2530 H   0  0  0  0  0  0  0  0  0  0  0  0
   25.3690    2.1310   33.7240 Cl  0  0  0  0  0  0  0  0  0  0  0  0
  1  2  1  0  0  0  0
  1  6  2  0  0  0  0
  1 23  1  0  0  0  0
  2  3  2  0  0  0  0
  2 36  1  0  0  0  0
  3  4  1  0  0  0  0
  3  7  1  0  0  0  0
  4  5  2  0  0  0  0
  4 24  1  0  0  0  0
  5  6  1  0  0  0  0
  5 38  1  0  0  0  0
  6 37  1  0  0  0  0
  7  8  1  0  0  0  0
  7 26  1  0  0  0  0
  7 27  1  0  0  0  0
  8  9  1  0  0  0  0
  8 11  2  0  0  0  0
  9 10  1  0  0  0  0
  9 28  1  0  0  0  0
 10 12  1  0  0  0  0
 10 16  2  0  0  0  0
 12 13  2  0  0  0  0
 13 14  1  0  0  0  0
 13 19  1  0  0  0  0
 14 15  2  0  0  0  0
 14 18  1  0  0  0  0
 15 16  1  0  0  0  0
 15 17  1  0  0  0  0
 16 25  1  0  0  0  0
 17 29  1  0  0  0  0
 17 30  1  0  0  0  0
 18 22  3  0  0  0  0
 19 20  1  0  0  0  0
 20 21  1  0  0  0  0
 20 31  1  0  0  0  0
 20 32  1  0  0  0  0
 21 33  1  0  0  0  0
 21 34  1  0  0  0  0
 21 35  1  0  0  0  0
M  END
$$$$
