18631-1
 OpenBabel02232411163D
Structure written by MMmdl.
 42 43  0  0  0  0  0  0  0  0999 V2000
   23.8330   12.6340   30.3440 C   0  0  0  0  0  0  0  0  0  0  0  0
   23.3970   11.1850   30.4620 C   0  0  0  0  0  0  0  0  0  0  0  0
   22.1440   11.2750   31.2540 O   0  0  0  0  0  0  0  0  0  0  0  0
   21.5090   10.1310   31.5890 C   0  0  0  0  0  0  0  0  0  0  0  0
   21.9850    8.9460   31.1420 N   0  0  0  0  0  0  0  0  0  0  0  0
   21.2540    7.8060   31.4510 C   0  0  0  0  0  0  0  0  0  0  0  0
   20.1010    7.8420   32.2300 C   0  0  0  0  0  0  0  0  0  0  0  0
   19.6180    9.0900   32.7060 C   0  0  0  0  0  0  0  0  0  0  0  0
   18.4770    9.1320   33.4660 N   0  0  0  0  0  0  0  0  0  0  0  0
   20.3250   10.2880   32.3690 C   0  0  0  0  0  0  0  0  0  0  0  0
   19.9020   11.5870   32.7230 C   0  0  0  0  0  0  0  0  0  0  0  0
   19.5990   12.6790   32.9700 N   0  0  0  0  0  0  0  0  0  0  0  0
   21.8140    6.6490   30.8680 N   0  0  0  0  0  0  0  0  0  0  0  0
   21.2260    5.3610   30.8030 C   0  0  0  0  0  0  0  0  0  0  0  0
   20.1610    5.1030   31.3230 O   0  0  0  0  0  0  0  0  0  0  0  0
   22.0220    4.3740   29.9600 C   0  0  0  0  0  0  0  0  0  0  0  0
   23.3400    4.0130   30.5770 C   0  0  0  0  0  0  0  0  0  0  0  0
   24.4890    4.8220   30.3630 C   0  0  0  0  0  0  0  0  0  0  0  0
   24.2390    5.9040   29.5360 O   0  0  0  0  0  0  0  0  0  0  0  0
   25.2900    6.8920   29.3640 C   0  0  0  0  0  0  0  0  0  0  0  0
   25.7250    4.5150   30.9320 C   0  0  0  0  0  0  0  0  0  0  0  0
   25.8340    3.3700   31.7310 C   0  0  0  0  0  0  0  0  0  0  0  0
   24.7260    2.5500   31.9420 C   0  0  0  0  0  0  0  0  0  0  0  0
   23.4900    2.8660   31.3610 C   0  0  0  0  0  0  0  0  0  0  0  0
   24.7600   12.6780   29.7170 H   0  0  0  0  0  0  0  0  0  0  0  0
   23.0480   13.2490   29.8440 H   0  0  0  0  0  0  0  0  0  0  0  0
   24.0550   13.0760   31.3400 H   0  0  0  0  0  0  0  0  0  0  0  0
   23.1440   10.7360   29.4760 H   0  0  0  0  0  0  0  0  0  0  0  0
   24.1250   10.5650   31.0320 H   0  0  0  0  0  0  0  0  0  0  0  0
   19.5490    6.9300   32.4660 H   0  0  0  0  0  0  0  0  0  0  0  0
   17.9730    8.2620   33.7250 H   0  0  0  0  0  0  0  0  0  0  0  0
   18.0780   10.0170   33.7790 H   0  0  0  0  0  0  0  0  0  0  0  0
   22.7350    6.7920   30.3850 H   0  0  0  0  0  0  0  0  0  0  0  0
   21.4070    3.4490   29.8180 H   0  0  0  0  0  0  0  0  0  0  0  0
   22.2030    4.8380   28.9510 H   0  0  0  0  0  0  0  0  0  0  0  0
   25.5920    7.3090   30.3490 H   0  0  0  0  0  0  0  0  0  0  0  0
   26.1460    6.4380   28.8230 H   0  0  0  0  0  0  0  0  0  0  0  0
   24.7740    7.6600   28.7420 H   0  0  0  0  0  0  0  0  0  0  0  0
   26.6070    5.1340   30.7650 H   0  0  0  0  0  0  0  0  0  0  0  0
   26.7980    3.1210   32.1850 H   0  0  0  0  0  0  0  0  0  0  0  0
   24.8230    1.6520   32.5580 H   0  0  0  0  0  0  0  0  0  0  0  0
   22.6430    2.1960   31.5330 H   0  0  0  0  0  0  0  0  0  0  0  0
  1  2  1  0  0  0  0
  1 25  1  0  0  0  0
  1 26  1  0  0  0  0
  1 27  1  0  0  0  0
  2  3  1  0  0  0  0
  2 28  1  0  0  0  0
  2 29  1  0  0  0  0
  3  4  1  0  0  0  0
  4 10  2  0  0  0  0
  4  5  1  0  0  0  0
  5  6  2  0  0  0  0
  6  7  1  0  0  0  0
  6 13  1  0  0  0  0
  7  8  2  0  0  0  0
  7 30  1  0  0  0  0
  8  9  1  0  0  0  0
  8 10  1  0  0  0  0
  9 31  1  0  0  0  0
  9 32  1  0  0  0  0
 10 11  1  0  0  0  0
 11 12  3  0  0  0  0
 13 14  1  0  0  0  0
 13 33  1  0  0  0  0
 14 15  2  0  0  0  0
 14 16  1  0  0  0  0
 16 17  1  0  0  0  0
 16 34  1  0  0  0  0
 16 35  1  0  0  0  0
 17 24  2  0  0  0  0
 17 18  1  0  0  0  0
 18 19  1  0  0  0  0
 18 21  2  0  0  0  0
 19 20  1  0  0  0  0
 20 36  1  0  0  0  0
 20 37  1  0  0  0  0
 20 38  1  0  0  0  0
 21 22  1  0  0  0  0
 21 39  1  0  0  0  0
 22 23  2  0  0  0  0
 22 40  1  0  0  0  0
 23 24  1  0  0  0  0
 23 41  1  0  0  0  0
 24 42  1  0  0  0  0
M  END
$$$$
