p38a_2y
 OpenBabel02232411163D
Structure written by MMmdl.
 45 47  0  0  0  0  0  0  0  0999 V2000
   36.3680   36.0610   15.7520 C   0  0  0  0  0  0  0  0  0  0  0  0
   34.6310   34.9930   21.3420 C   0  0  0  0  0  0  0  0  0  0  0  0
   35.6630   35.5870   16.8540 C   0  0  0  0  0  0  0  0  0  0  0  0
   34.4890   39.0240   24.0060 C   0  0  0  0  0  0  0  0  0  0  0  0
   34.3650   38.8680   26.4970 C   0  0  0  0  0  0  0  0  0  0  0  0
   34.8450   37.8540   21.5390 C   0  0  0  0  0  0  0  0  0  0  0  0
   35.1690   37.2090   20.2950 C   0  0  0  0  0  0  0  0  0  0  0  0
   37.6590   36.5450   15.9960 C   0  0  0  0  0  0  0  0  0  0  0  0
   38.2590   36.5350   17.2580 C   0  0  0  0  0  0  0  0  0  0  0  0
   37.5160   36.0910   18.3580 C   0  0  0  0  0  0  0  0  0  0  0  0
   34.5930   37.0690   22.7040 C   0  0  0  0  0  0  0  0  0  0  0  0
   34.7790   39.2650   21.6910 C   0  0  0  0  0  0  0  0  0  0  0  0
   35.1120   35.8590   20.2320 C   0  0  0  0  0  0  0  0  0  0  0  0
   36.2160   35.6220   18.1510 C   0  0  0  0  0  0  0  0  0  0  0  0
   34.2380   34.8700   23.8340 C   0  0  0  0  0  0  0  0  0  0  0  0
   34.4470   35.0780   16.7100 F   0  0  0  0  0  0  0  0  0  0  0  0
   35.4210   35.0400   19.1460 O   0  0  0  0  0  0  0  0  0  0  0  0
   34.5830   39.8630   22.8760 N   0  0  0  0  0  0  0  0  0  0  0  0
   34.3610   33.8160   21.2510 O   0  0  0  0  0  0  0  0  0  0  0  0
   34.4900   35.6720   22.6040 N   0  0  0  0  0  0  0  0  0  0  0  0
   34.4260   37.6470   23.9380 N   0  0  0  0  0  0  0  0  0  0  0  0
   34.5380   39.6400   25.2410 N   0  0  0  0  0  0  0  0  0  0  0  0
   35.9290   36.0780   14.7530 H   0  0  0  0  0  0  0  0  0  0  0  0
   35.3930   38.7050   26.9290 H   0  0  0  0  0  0  0  0  0  0  0  0
   35.4730   37.8350   19.4530 H   0  0  0  0  0  0  0  0  0  0  0  0
   39.2820   36.8980   17.3940 H   0  0  0  0  0  0  0  0  0  0  0  0
   37.9500   36.1390   19.3590 H   0  0  0  0  0  0  0  0  0  0  0  0
   34.8840   39.9200   20.8080 H   0  0  0  0  0  0  0  0  0  0  0  0
   35.0100   35.1130   24.6150 H   0  0  0  0  0  0  0  0  0  0  0  0
   33.2240   35.1110   24.2530 H   0  0  0  0  0  0  0  0  0  0  0  0
   34.2900   33.7750   23.6010 H   0  0  0  0  0  0  0  0  0  0  0  0
   34.3110   40.6510   25.2940 H   0  0  0  0  0  0  0  0  0  0  0  0
   38.3280   37.0760   14.9750 F   0  0  0  0  0  0  0  0  0  0  0  0
   33.4850   39.6140   27.5540 C   0  0  0  0  0  0  0  0  0  0  0  0
   33.9140   37.8580   26.2910 H   0  0  0  0  0  0  0  0  0  0  0  0
   34.2770   40.7460   28.2220 C   0  0  0  0  0  0  0  0  0  0  0  0
   32.3090   40.1400   26.8960 O   0  0  0  0  0  0  0  0  0  0  0  0
   32.9390   38.6150   28.5750 C   0  0  0  0  0  0  0  0  0  0  0  0
   32.5640   40.9780   26.4110 H   0  0  0  0  0  0  0  0  0  0  0  0
   33.6190   41.3420   28.8930 H   0  0  0  0  0  0  0  0  0  0  0  0
   35.1030   40.3230   28.8420 H   0  0  0  0  0  0  0  0  0  0  0  0
   34.7310   41.4280   27.4710 H   0  0  0  0  0  0  0  0  0  0  0  0
   32.4300   39.1480   29.4120 H   0  0  0  0  0  0  0  0  0  0  0  0
   32.2060   37.9210   28.1030 H   0  0  0  0  0  0  0  0  0  0  0  0
   33.7730   38.0100   29.0080 H   0  0  0  0  0  0  0  0  0  0  0  0
  1  3  2  0  0  0  0
  1  8  1  0  0  0  0
  1 23  1  0  0  0  0
  2 13  1  0  0  0  0
  2 19  2  0  0  0  0
  2 20  1  0  0  0  0
  3 14  1  0  0  0  0
  3 16  1  0  0  0  0
  4 18  2  0  0  0  0
  4 21  1  0  0  0  0
  4 22  1  0  0  0  0
  5 22  1  0  0  0  0
  5 24  1  0  0  0  0
  5 34  1  0  0  0  0
  5 35  1  0  0  0  0
  6  7  1  0  0  0  0
  6 11  1  0  0  0  0
  6 12  2  0  0  0  0
  7 13  2  0  0  0  0
  7 25  1  0  0  0  0
  8  9  2  0  0  0  0
  8 33  1  0  0  0  0
  9 10  1  0  0  0  0
  9 26  1  0  0  0  0
 10 14  2  0  0  0  0
 10 27  1  0  0  0  0
 11 20  1  0  0  0  0
 11 21  2  0  0  0  0
 12 18  1  0  0  0  0
 12 28  1  0  0  0  0
 13 17  1  0  0  0  0
 14 17  1  0  0  0  0
 15 20  1  0  0  0  0
 15 29  1  0  0  0  0
 15 30  1  0  0  0  0
 15 31  1  0  0  0  0
 22 32  1  0  0  0  0
 34 36  1  0  0  0  0
 34 37  1  0  0  0  0
 34 38  1  0  0  0  0
 36 40  1  0  0  0  0
 36 41  1  0  0  0  0
 36 42  1  0  0  0  0
 37 39  1  0  0  0  0
 38 43  1  0  0  0  0
 38 44  1  0  0  0  0
 38 45  1  0  0  0  0
M  END
$$$$
