p38a_2bb
 OpenBabel02232411163D
Structure written by MMmdl.
 44 46  0  0  0  0  0  0  0  0999 V2000
   36.2830   35.8090   16.1140 C   0  0  0  0  0  0  0  0  0  0  0  0
   34.5680   35.1010   21.7970 C   0  0  0  0  0  0  0  0  0  0  0  0
   35.5260   35.4450   17.2230 C   0  0  0  0  0  0  0  0  0  0  0  0
   34.4440   39.2530   24.2720 C   0  0  0  0  0  0  0  0  0  0  0  0
   34.1600   39.2390   26.7740 C   0  0  0  0  0  0  0  0  0  0  0  0
   34.7830   37.9650   21.8590 C   0  0  0  0  0  0  0  0  0  0  0  0
   35.0440   37.2680   20.6280 C   0  0  0  0  0  0  0  0  0  0  0  0
   37.5760   36.2850   16.3690 C   0  0  0  0  0  0  0  0  0  0  0  0
   38.1300   36.3600   17.6500 C   0  0  0  0  0  0  0  0  0  0  0  0
   37.3420   36.0080   18.7500 C   0  0  0  0  0  0  0  0  0  0  0  0
   34.5610   37.2360   23.0670 C   0  0  0  0  0  0  0  0  0  0  0  0
   34.7370   39.3810   21.9460 C   0  0  0  0  0  0  0  0  0  0  0  0
   34.9790   35.9170   20.6220 C   0  0  0  0  0  0  0  0  0  0  0  0
   36.0360   35.5560   18.5340 C   0  0  0  0  0  0  0  0  0  0  0  0
   34.2750   35.0910   24.3080 C   0  0  0  0  0  0  0  0  0  0  0  0
   34.3000   34.9600   17.0710 F   0  0  0  0  0  0  0  0  0  0  0  0
   35.1900   35.0680   19.5360 O   0  0  0  0  0  0  0  0  0  0  0  0
   34.5570   40.0330   23.1040 N   0  0  0  0  0  0  0  0  0  0  0  0
   34.3070   33.9200   21.7780 O   0  0  0  0  0  0  0  0  0  0  0  0
   34.4770   35.8370   23.0340 N   0  0  0  0  0  0  0  0  0  0  0  0
   34.3980   37.8730   24.2750 N   0  0  0  0  0  0  0  0  0  0  0  0
   34.4300   39.9330   25.4730 N   0  0  0  0  0  0  0  0  0  0  0  0
   35.8840   35.7590   15.0970 H   0  0  0  0  0  0  0  0  0  0  0  0
   34.7990   38.3140   26.8170 H   0  0  0  0  0  0  0  0  0  0  0  0
   35.3010   37.8600   19.7450 H   0  0  0  0  0  0  0  0  0  0  0  0
   39.1540   36.7190   17.7900 H   0  0  0  0  0  0  0  0  0  0  0  0
   37.7430   36.1100   19.7600 H   0  0  0  0  0  0  0  0  0  0  0  0
   34.8400   39.9950   21.0340 H   0  0  0  0  0  0  0  0  0  0  0  0
   35.0870   35.3570   25.0390 H   0  0  0  0  0  0  0  0  0  0  0  0
   33.2850   35.3640   24.7630 H   0  0  0  0  0  0  0  0  0  0  0  0
   34.3030   33.9860   24.1190 H   0  0  0  0  0  0  0  0  0  0  0  0
   34.2170   40.9510   25.4670 H   0  0  0  0  0  0  0  0  0  0  0  0
   38.3000   36.7160   15.3380 F   0  0  0  0  0  0  0  0  0  0  0  0
   34.5200   40.1970   27.9110 C   0  0  0  0  0  0  0  0  0  0  0  0
   33.0710   38.9620   26.8240 H   0  0  0  0  0  0  0  0  0  0  0  0
   35.5960   40.5150   27.8030 H   0  0  0  0  0  0  0  0  0  0  0  0
   33.9260   41.1510   27.7950 H   0  0  0  0  0  0  0  0  0  0  0  0
   34.4060   40.9810   30.5400 C   0  0  0  0  0  0  0  0  0  0  0  0
   34.2610   39.5660   29.5420 S   0  0  0  0  0  0  0  0  0  0  0  0
   32.9130   38.9640   29.6830 O   0  0  0  0  0  0  0  0  0  0  0  0
   35.3070   38.5790   29.9030 O   0  0  0  0  0  0  0  0  0  0  0  0
   35.3740   41.5180   30.3610 H   0  0  0  0  0  0  0  0  0  0  0  0
   33.5970   41.7320   30.3310 H   0  0  0  0  0  0  0  0  0  0  0  0
   34.3580   40.7510   31.6330 H   0  0  0  0  0  0  0  0  0  0  0  0
  1  3  2  0  0  0  0
  1  8  1  0  0  0  0
  1 23  1  0  0  0  0
  2 13  1  0  0  0  0
  2 19  2  0  0  0  0
  2 20  1  0  0  0  0
  3 14  1  0  0  0  0
  3 16  1  0  0  0  0
  4 18  2  0  0  0  0
  4 21  1  0  0  0  0
  4 22  1  0  0  0  0
  5 22  1  0  0  0  0
  5 24  1  0  0  0  0
  5 34  1  0  0  0  0
  5 35  1  0  0  0  0
  6  7  1  0  0  0  0
  6 11  1  0  0  0  0
  6 12  2  0  0  0  0
  7 13  2  0  0  0  0
  7 25  1  0  0  0  0
  8  9  2  0  0  0  0
  8 33  1  0  0  0  0
  9 10  1  0  0  0  0
  9 26  1  0  0  0  0
 10 14  2  0  0  0  0
 10 27  1  0  0  0  0
 11 20  1  0  0  0  0
 11 21  2  0  0  0  0
 12 18  1  0  0  0  0
 12 28  1  0  0  0  0
 13 17  1  0  0  0  0
 14 17  1  0  0  0  0
 15 20  1  0  0  0  0
 15 29  1  0  0  0  0
 15 30  1  0  0  0  0
 15 31  1  0  0  0  0
 22 32  1  0  0  0  0
 34 36  1  0  0  0  0
 34 37  1  0  0  0  0
 34 39  1  0  0  0  0
 38 39  1  0  0  0  0
 38 42  1  0  0  0  0
 38 43  1  0  0  0  0
 38 44  1  0  0  0  0
 39 40  2  0  0  0  0
 39 41  2  0  0  0  0
M  END
$$$$
