p38a_3flw
 OpenBabel02232411163D
Structure written by MMmdl.
 49 51  0  0  0  0  0  0  0  0999 V2000
   36.3500   36.0080   15.8330 C   0  0  0  0  0  0  0  0  0  0  0  0
   37.6410   36.5130   16.0320 C   0  0  0  0  0  0  0  0  0  0  0  0
   33.4200   39.9720   27.5810 C   0  0  0  0  0  0  0  0  0  0  0  0
   34.8250   40.4180   28.0130 C   0  0  0  0  0  0  0  0  0  0  0  0
   31.9390   38.7100   25.9280 C   0  0  0  0  0  0  0  0  0  0  0  0
   34.1260   34.9710   23.9100 C   0  0  0  0  0  0  0  0  0  0  0  0
   34.4670   35.0260   16.8640 F   0  0  0  0  0  0  0  0  0  0  0  0
   35.6810   35.5490   16.9630 C   0  0  0  0  0  0  0  0  0  0  0  0
   38.2780   37.0300   14.9840 F   0  0  0  0  0  0  0  0  0  0  0  0
   38.2770   36.5330   17.2770 C   0  0  0  0  0  0  0  0  0  0  0  0
   37.5710   36.0980   18.4040 C   0  0  0  0  0  0  0  0  0  0  0  0
   36.2710   35.6120   18.2430 C   0  0  0  0  0  0  0  0  0  0  0  0
   35.5190   35.0330   19.2740 O   0  0  0  0  0  0  0  0  0  0  0  0
   35.1850   35.8760   20.3310 C   0  0  0  0  0  0  0  0  0  0  0  0
   35.2710   37.2250   20.3780 C   0  0  0  0  0  0  0  0  0  0  0  0
   34.9070   37.8960   21.5980 C   0  0  0  0  0  0  0  0  0  0  0  0
   34.8780   39.3090   21.7260 C   0  0  0  0  0  0  0  0  0  0  0  0
   34.5880   39.9330   22.8800 N   0  0  0  0  0  0  0  0  0  0  0  0
   34.6460   35.0360   21.4380 C   0  0  0  0  0  0  0  0  0  0  0  0
   34.3660   33.8620   21.3540 O   0  0  0  0  0  0  0  0  0  0  0  0
   34.4620   35.7390   22.6790 N   0  0  0  0  0  0  0  0  0  0  0  0
   34.5650   37.1370   22.7570 C   0  0  0  0  0  0  0  0  0  0  0  0
   34.2930   37.7440   23.9590 N   0  0  0  0  0  0  0  0  0  0  0  0
   34.3280   39.1190   23.9970 C   0  0  0  0  0  0  0  0  0  0  0  0
   34.1290   39.7650   25.2130 N   0  0  0  0  0  0  0  0  0  0  0  0
   33.3940   39.0750   26.3230 C   0  0  0  0  0  0  0  0  0  0  0  0
   31.3130   39.6640   24.9050 C   0  0  0  0  0  0  0  0  0  0  0  0
   29.9860   39.2120   24.5870 O   0  0  0  0  0  0  0  0  0  0  0  0
   35.0760   41.7940   27.6560 O   0  0  0  0  0  0  0  0  0  0  0  0
   35.8840   36.0000   14.8440 H   0  0  0  0  0  0  0  0  0  0  0  0
   32.9610   39.3810   28.4160 H   0  0  0  0  0  0  0  0  0  0  0  0
   32.7880   40.8790   27.4210 H   0  0  0  0  0  0  0  0  0  0  0  0
   34.9220   40.4210   29.1240 H   0  0  0  0  0  0  0  0  0  0  0  0
   35.6180   39.7950   27.5390 H   0  0  0  0  0  0  0  0  0  0  0  0
   31.9390   37.6730   25.5050 H   0  0  0  0  0  0  0  0  0  0  0  0
   31.3090   38.6820   26.8500 H   0  0  0  0  0  0  0  0  0  0  0  0
   34.8710   35.2030   24.7200 H   0  0  0  0  0  0  0  0  0  0  0  0
   33.1050   35.2600   24.2820 H   0  0  0  0  0  0  0  0  0  0  0  0
   34.1450   33.8700   23.7010 H   0  0  0  0  0  0  0  0  0  0  0  0
   39.2980   36.9120   17.3780 H   0  0  0  0  0  0  0  0  0  0  0  0
   38.0340   36.1670   19.3910 H   0  0  0  0  0  0  0  0  0  0  0  0
   35.6180   37.8330   19.5390 H   0  0  0  0  0  0  0  0  0  0  0  0
   35.0760   39.9430   20.8470 H   0  0  0  0  0  0  0  0  0  0  0  0
   33.9630   40.7930   25.1800 H   0  0  0  0  0  0  0  0  0  0  0  0
   33.9500   38.1220   26.5570 H   0  0  0  0  0  0  0  0  0  0  0  0
   31.2860   40.7040   25.2950 H   0  0  0  0  0  0  0  0  0  0  0  0
   31.8230   39.6050   23.9190 H   0  0  0  0  0  0  0  0  0  0  0  0
   29.3340   39.8160   25.0370 H   0  0  0  0  0  0  0  0  0  0  0  0
   34.6330   41.9570   26.7730 H   0  0  0  0  0  0  0  0  0  0  0  0
  1  2  2  0  0  0  0
  1  8  1  0  0  0  0
  1 30  1  0  0  0  0
  2  9  1  0  0  0  0
  2 10  1  0  0  0  0
  3  4  1  0  0  0  0
  3 26  1  0  0  0  0
  3 31  1  0  0  0  0
  3 32  1  0  0  0  0
  4 29  1  0  0  0  0
  4 33  1  0  0  0  0
  4 34  1  0  0  0  0
  5 26  1  0  0  0  0
  5 27  1  0  0  0  0
  5 35  1  0  0  0  0
  5 36  1  0  0  0  0
  6 21  1  0  0  0  0
  6 37  1  0  0  0  0
  6 38  1  0  0  0  0
  6 39  1  0  0  0  0
  7  8  1  0  0  0  0
  8 12  2  0  0  0  0
 10 11  2  0  0  0  0
 10 40  1  0  0  0  0
 11 12  1  0  0  0  0
 11 41  1  0  0  0  0
 12 13  1  0  0  0  0
 13 14  1  0  0  0  0
 14 15  2  0  0  0  0
 14 19  1  0  0  0  0
 15 16  1  0  0  0  0
 15 42  1  0  0  0  0
 16 17  2  0  0  0  0
 16 22  1  0  0  0  0
 17 18  1  0  0  0  0
 17 43  1  0  0  0  0
 18 24  2  0  0  0  0
 19 20  2  0  0  0  0
 19 21  1  0  0  0  0
 21 22  1  0  0  0  0
 22 23  2  0  0  0  0
 23 24  1  0  0  0  0
 24 25  1  0  0  0  0
 25 26  1  0  0  0  0
 25 44  1  0  0  0  0
 26 45  1  0  0  0  0
 27 28  1  0  0  0  0
 27 46  1  0  0  0  0
 27 47  1  0  0  0  0
 28 48  1  0  0  0  0
 29 49  1  0  0  0  0
M  END
$$$$
