47 flip
                    3D
 Schrodinger Suite 2022-3.
 43 46  0  0  1  0  0  0  0  0999 V2000
    3.6480  -48.6900    7.2140 O   0  0  0  0  0  0  0  0  0  0  0  0
    3.2160  -49.5560    6.4410 C   0  0  0  0  0  0  0  0  0  0  0  0
    3.8860  -50.3190    5.7210 O   0  5  0  0  0  0  0  0  0  0  0  0
    1.6900  -49.7560    6.3610 C   0  0  0  0  0  0  0  0  0  0  0  0
   -0.2570  -50.9460    6.5350 C   0  0  0  0  0  0  0  0  0  0  0  0
   -1.2470  -51.9150    6.7710 C   0  0  0  0  0  0  0  0  0  0  0  0
   -2.5560  -51.5790    6.4590 C   0  0  0  0  0  0  0  0  0  0  0  0
   -2.8800  -50.3110    5.9200 C   0  0  0  0  0  0  0  0  0  0  0  0
   -1.9060  -49.3490    5.6860 C   0  0  0  0  0  0  0  0  0  0  0  0
   -0.5680  -49.6450    5.9950 C   0  0  0  0  0  0  0  0  0  0  0  0
    0.6780  -48.9130    5.9110 C   0  0  0  0  0  0  0  0  0  0  0  0
    0.7910  -47.5050    5.4470 C   0  0  0  0  0  0  0  0  0  0  0  0
    0.8010  -46.5030    6.6170 C   0  0  0  0  0  0  0  0  0  0  0  0
   -0.5250  -46.4480    7.3660 C   0  0  0  0  0  0  0  0  0  0  0  0
   -1.4190  -45.7240    6.4350 O   0  0  0  0  0  0  0  0  0  0  0  0
   -2.6940  -45.4910    6.8380 C   0  0  0  0  0  0  0  0  0  0  0  0
   -4.7420  -44.3780    6.1450 C   0  0  0  0  0  0  0  0  0  0  0  0
   -3.4420  -44.7020    5.8910 C   0  0  0  0  0  0  0  0  0  0  0  0
   -1.0040  -52.8910    7.1890 H   0  0  0  0  0  0  0  0  0  0  0  0
   -3.3590  -52.2970    6.6320 H   0  0  0  0  0  0  0  0  0  0  0  0
   -3.9240  -50.0970    5.6900 H   0  0  0  0  0  0  0  0  0  0  0  0
   -2.1840  -48.3800    5.2710 H   0  0  0  0  0  0  0  0  0  0  0  0
   -0.0850  -47.2600    4.7920 H   0  0  0  0  0  0  0  0  0  0  0  0
    1.7260  -47.3580    4.8550 H   0  0  0  0  0  0  0  0  0  0  0  0
    1.0130  -45.4840    6.2180 H   0  0  0  0  0  0  0  0  0  0  0  0
    1.5960  -46.7980    7.3450 H   0  0  0  0  0  0  0  0  0  0  0  0
   -0.4660  -45.8350    8.2900 H   0  0  0  0  0  0  0  0  0  0  0  0
   -0.9710  -47.4530    7.5320 H   0  0  0  0  0  0  0  0  0  0  0  0
   -2.9540  -44.3680    4.9800 H   0  0  0  0  0  0  0  0  0  0  0  0
   -3.2610  -45.9250    8.0210 C   0  0  0  0  0  0  0  0  0  0  0  0
   -5.3270  -43.7810    5.4370 H   0  0  0  0  0  0  0  0  0  0  0  0
   -4.6150  -45.5950    8.2980 C   0  0  0  0  0  0  0  0  0  0  0  0
   -5.3720  -44.8380    7.3550 C   0  0  0  0  0  0  0  0  0  0  0  0
   -6.7160  -44.5630    7.5410 N   0  0  0  0  0  0  0  0  0  0  0  0
   -7.2950  -45.0000    8.6570 C   0  0  0  0  0  0  0  0  0  0  0  0
   -6.5900  -45.6960    9.6910 C   0  0  0  0  0  0  0  0  0  0  0  0
   -5.2680  -46.0070    9.5020 C   0  0  0  0  0  0  0  0  0  0  0  0
   -8.3680  -44.8320    8.7650 H   0  0  0  0  0  0  0  0  0  0  0  0
   -7.1230  -45.9760   10.5970 H   0  0  0  0  0  0  0  0  0  0  0  0
   -4.7080  -46.5740   10.2480 H   0  0  0  0  0  0  0  0  0  0  0  0
   -2.7260  -46.5280    8.7500 H   0  0  0  0  0  0  0  0  0  0  0  0
    1.1310  -50.9880    6.7490 N   0  0  0  0  0  0  0  0  0  0  0  0
    1.6130  -51.7980    7.1200 H   0  0  0  0  0  0  0  0  0  0  0  0
  1  2  2  0  0  0  0
  2  3  1  0  0  0  0
  2  4  1  0  0  0  0
  4 11  2  0  0  0  0
  4 42  1  0  0  0  0
  5  6  1  0  0  0  0
  5 10  2  0  0  0  0
  5 42  1  0  0  0  0
  6  7  2  0  0  0  0
  6 19  1  0  0  0  0
  7  8  1  0  0  0  0
  7 20  1  0  0  0  0
  8  9  2  0  0  0  0
  8 21  1  0  0  0  0
  9 10  1  0  0  0  0
  9 22  1  0  0  0  0
 10 11  1  0  0  0  0
 11 12  1  0  0  0  0
 12 23  1  0  0  0  0
 12 24  1  0  0  0  0
 12 13  1  0  0  0  0
 13 14  1  0  0  0  0
 13 25  1  0  0  0  0
 13 26  1  0  0  0  0
 14 15  1  0  0  0  0
 14 27  1  0  0  0  0
 14 28  1  0  0  0  0
 15 16  1  0  0  0  0
 16 18  2  0  0  0  0
 16 30  1  0  0  0  0
 17 18  1  0  0  0  0
 17 31  1  0  0  0  0
 17 33  2  0  0  0  0
 18 29  1  0  0  0  0
 30 32  2  0  0  0  0
 30 41  1  0  0  0  0
 32 33  1  0  0  0  0
 32 37  1  0  0  0  0
 33 34  1  0  0  0  0
 34 35  2  0  0  0  0
 35 36  1  0  0  0  0
 35 38  1  0  0  0  0
 36 37  2  0  0  0  0
 36 39  1  0  0  0  0
 37 40  1  0  0  0  0
 42 43  1  0  0  0  0
M  CHG  1   3  -1
M  END
$$$$
