p38a_2x
 OpenBabel02232411163D
Structure written by MMmdl.
 43 46  0  0  1  0  0  0  0  0999 V2000
   38.2660   36.5430   17.1270 C   0  0  0  0  0  0  0  0  0  0  0  0
   34.6270   35.0940   21.1720 C   0  0  0  0  0  0  0  0  0  0  0  0
   37.4500   36.0800   18.1550 C   0  0  0  0  0  0  0  0  0  0  0  0
   34.3470   39.1550   23.7810 C   0  0  0  0  0  0  0  0  0  0  0  0
   34.7050   37.9700   21.3230 C   0  0  0  0  0  0  0  0  0  0  0  0
   34.9990   37.3210   20.0760 C   0  0  0  0  0  0  0  0  0  0  0  0
   37.6510   36.7300   15.8810 C   0  0  0  0  0  0  0  0  0  0  0  0
   36.3050   36.4510   15.6360 C   0  0  0  0  0  0  0  0  0  0  0  0
   35.5090   35.9720   16.6830 C   0  0  0  0  0  0  0  0  0  0  0  0
   34.4960   37.1890   22.5000 C   0  0  0  0  0  0  0  0  0  0  0  0
   34.6290   39.3820   21.4650 C   0  0  0  0  0  0  0  0  0  0  0  0
   35.0060   35.9690   20.0320 C   0  0  0  0  0  0  0  0  0  0  0  0
   36.0870   35.7810   17.9400 C   0  0  0  0  0  0  0  0  0  0  0  0
   34.2170   35.0010   23.6630 C   0  0  0  0  0  0  0  0  0  0  0  0
   37.9510   35.9190   19.3740 F   0  0  0  0  0  0  0  0  0  0  0  0
   35.3220   35.1630   18.9380 O   0  0  0  0  0  0  0  0  0  0  0  0
   34.4440   39.9860   22.6490 N   0  0  0  0  0  0  0  0  0  0  0  0
   34.4640   33.8940   21.1190 O   0  0  0  0  0  0  0  0  0  0  0  0
   34.4530   35.7890   22.4200 N   0  0  0  0  0  0  0  0  0  0  0  0
   34.3200   37.7760   23.7300 N   0  0  0  0  0  0  0  0  0  0  0  0
   34.3200   39.7730   25.0130 N   0  0  0  0  0  0  0  0  0  0  0  0
   39.3190   36.7880   17.2910 H   0  0  0  0  0  0  0  0  0  0  0  0
   35.2260   37.9440   19.2090 H   0  0  0  0  0  0  0  0  0  0  0  0
   35.8610   36.6190   14.6530 H   0  0  0  0  0  0  0  0  0  0  0  0
   34.4470   35.7680   16.5110 H   0  0  0  0  0  0  0  0  0  0  0  0
   34.7160   40.0320   20.5780 H   0  0  0  0  0  0  0  0  0  0  0  0
   34.9780   35.2760   24.4430 H   0  0  0  0  0  0  0  0  0  0  0  0
   33.1930   35.2250   24.0690 H   0  0  0  0  0  0  0  0  0  0  0  0
   34.2940   33.9040   23.4470 H   0  0  0  0  0  0  0  0  0  0  0  0
   34.1120   40.7910   25.0730 H   0  0  0  0  0  0  0  0  0  0  0  0
   38.3780   37.2400   14.8900 F   0  0  0  0  0  0  0  0  0  0  0  0
   32.5090   39.0530   28.0210 O   0  0  0  0  0  0  0  0  0  0  0  0
   33.4730   40.0860   28.3630 C   0  0  0  0  0  0  0  0  0  0  0  0
   34.7000   39.8610   27.4660 C   0  0  0  0  0  0  0  0  0  0  0  0
   34.1800   39.0100   26.2810 C   0  0  1  0  0  0  0  0  0  0  0  0
   32.6910   38.7160   26.6220 C   0  0  0  0  0  0  0  0  0  0  0  0
   33.6780   39.9330   29.4420 H   0  0  0  0  0  0  0  0  0  0  0  0
   33.0040   41.0740   28.1600 H   0  0  0  0  0  0  0  0  0  0  0  0
   35.1260   40.8360   27.1300 H   0  0  0  0  0  0  0  0  0  0  0  0
   35.5050   39.3110   28.0070 H   0  0  0  0  0  0  0  0  0  0  0  0
   34.7670   38.0560   26.1970 H   0  0  0  0  0  0  0  0  0  0  0  0
   32.4430   37.6350   26.5580 H   0  0  0  0  0  0  0  0  0  0  0  0
   31.9940   39.3460   26.0270 H   0  0  0  0  0  0  0  0  0  0  0  0
  1  3  2  0  0  0  0
  1  7  1  0  0  0  0
  1 22  1  0  0  0  0
  2 12  1  0  0  0  0
  2 18  2  0  0  0  0
  2 19  1  0  0  0  0
  3 13  1  0  0  0  0
  3 15  1  0  0  0  0
  4 17  2  0  0  0  0
  4 20  1  0  0  0  0
  4 21  1  0  0  0  0
  5  6  1  0  0  0  0
  5 10  1  0  0  0  0
  5 11  2  0  0  0  0
  6 12  2  0  0  0  0
  6 23  1  0  0  0  0
  7  8  2  0  0  0  0
  7 31  1  0  0  0  0
  8  9  1  0  0  0  0
  8 24  1  0  0  0  0
  9 13  2  0  0  0  0
  9 25  1  0  0  0  0
 10 19  1  0  0  0  0
 10 20  2  0  0  0  0
 11 17  1  0  0  0  0
 11 26  1  0  0  0  0
 12 16  1  0  0  0  0
 13 16  1  0  0  0  0
 14 19  1  0  0  0  0
 14 27  1  0  0  0  0
 14 28  1  0  0  0  0
 14 29  1  0  0  0  0
 21 30  1  0  0  0  0
 21 35  1  0  0  0  0
 32 33  1  0  0  0  0
 32 36  1  0  0  0  0
 33 34  1  0  0  0  0
 33 37  1  0  0  0  0
 33 38  1  0  0  0  0
 34 35  1  0  0  0  0
 34 39  1  0  0  0  0
 34 40  1  0  0  0  0
 35 36  1  0  0  0  0
 35 41  1  1  0  0  0
 36 42  1  0  0  0  0
 36 43  1  0  0  0  0
M  END
$$$$
