52
                    3D
 Schrodinger Suite 2022-3.
 41 43  0  0  1  0  0  0  0  0999 V2000
    3.6570  -48.4300    7.3210 O   0  0  0  0  0  0  0  0  0  0  0  0
    3.2850  -49.2270    6.4510 C   0  0  0  0  0  0  0  0  0  0  0  0
    3.9970  -49.9110    5.6940 O   0  5  0  0  0  0  0  0  0  0  0  0
    1.7680  -49.4480    6.3050 C   0  0  0  0  0  0  0  0  0  0  0  0
   -0.1380  -50.7030    6.3830 C   0  0  0  0  0  0  0  0  0  0  0  0
   -1.1000  -51.7130    6.5480 C   0  0  0  0  0  0  0  0  0  0  0  0
   -2.3940  -51.3530    6.2210 C   0  0  0  0  0  0  0  0  0  0  0  0
   -2.7780  -50.0840    5.7490 C   0  0  0  0  0  0  0  0  0  0  0  0
   -1.8190  -49.0910    5.5920 C   0  0  0  0  0  0  0  0  0  0  0  0
   -0.4840  -49.3810    5.9130 C   0  0  0  0  0  0  0  0  0  0  0  0
    0.7400  -48.6110    5.8910 C   0  0  0  0  0  0  0  0  0  0  0  0
    0.7780  -47.1750    5.5110 C   0  0  0  0  0  0  0  0  0  0  0  0
    0.6390  -46.2480    6.7330 C   0  0  0  0  0  0  0  0  0  0  0  0
   -0.7050  -46.3520    7.4490 C   0  0  0  0  0  0  0  0  0  0  0  0
   -1.6640  -45.7380    6.5080 O   0  0  0  0  0  0  0  0  0  0  0  0
   -2.9430  -45.5420    6.9300 C   0  0  0  0  0  0  0  0  0  0  0  0
   -3.7380  -44.8380    5.9990 C   0  0  0  0  0  0  0  0  0  0  0  0
   -5.0750  -44.5660    6.2870 C   0  0  0  0  0  0  0  0  0  0  0  0
   -5.9610  -43.9110    5.2800 C   0  0  0  0  0  0  0  0  0  0  0  0
   -5.5830  -44.9970    7.5300 C   0  0  0  0  0  0  0  0  0  0  0  0
   -7.2400  -44.6970    7.9160 Cl  0  0  0  0  0  0  0  0  0  0  0  0
   -4.8060  -45.6990    8.4500 C   0  0  0  0  0  0  0  0  0  0  0  0
   -3.4730  -45.9850    8.1560 C   0  0  0  0  0  0  0  0  0  0  0  0
   -0.8440  -52.7090    6.9100 H   0  0  0  0  0  0  0  0  0  0  0  0
   -3.6390  -52.5570    6.3610 Cl  0  0  0  0  0  0  0  0  0  0  0  0
   -3.8240  -49.8920    5.5080 H   0  0  0  0  0  0  0  0  0  0  0  0
   -2.1110  -48.1050    5.2260 H   0  0  0  0  0  0  0  0  0  0  0  0
   -0.0780  -46.9640    4.8200 H   0  0  0  0  0  0  0  0  0  0  0  0
    1.7300  -46.9240    4.9830 H   0  0  0  0  0  0  0  0  0  0  0  0
    0.7660  -45.1910    6.4020 H   0  0  0  0  0  0  0  0  0  0  0  0
    1.4320  -46.5200    7.4720 H   0  0  0  0  0  0  0  0  0  0  0  0
   -0.7240  -45.7400    8.3760 H   0  0  0  0  0  0  0  0  0  0  0  0
   -1.0390  -47.4000    7.6050 H   0  0  0  0  0  0  0  0  0  0  0  0
   -3.3080  -44.5290    5.0490 H   0  0  0  0  0  0  0  0  0  0  0  0
   -6.5670  -43.0950    5.7350 H   0  0  0  0  0  0  0  0  0  0  0  0
   -5.3660  -43.4850    4.4390 H   0  0  0  0  0  0  0  0  0  0  0  0
   -6.6680  -44.6760    4.8670 H   0  0  0  0  0  0  0  0  0  0  0  0
   -2.8910  -46.5610    8.8700 H   0  0  0  0  0  0  0  0  0  0  0  0
   -5.2440  -46.0370    9.3950 H   0  0  0  0  0  0  0  0  0  0  0  0
    1.2410  -50.7190    6.6130 N   0  0  0  0  0  0  0  0  0  0  0  0
    1.7460  -51.5360    6.9370 H   0  0  0  0  0  0  0  0  0  0  0  0
  1  2  2  0  0  0  0
  2  3  1  0  0  0  0
  2  4  1  0  0  0  0
  4 11  2  0  0  0  0
  4 40  1  0  0  0  0
  5  6  1  0  0  0  0
  5 10  2  0  0  0  0
  5 40  1  0  0  0  0
  6  7  2  0  0  0  0
  6 24  1  0  0  0  0
  7  8  1  0  0  0  0
  7 25  1  0  0  0  0
  8  9  2  0  0  0  0
  8 26  1  0  0  0  0
  9 10  1  0  0  0  0
  9 27  1  0  0  0  0
 10 11  1  0  0  0  0
 11 12  1  0  0  0  0
 12 28  1  0  0  0  0
 12 29  1  0  0  0  0
 12 13  1  0  0  0  0
 13 14  1  0  0  0  0
 13 30  1  0  0  0  0
 13 31  1  0  0  0  0
 14 15  1  0  0  0  0
 14 32  1  0  0  0  0
 14 33  1  0  0  0  0
 15 16  1  0  0  0  0
 16 17  1  0  0  0  0
 16 23  2  0  0  0  0
 17 18  2  0  0  0  0
 17 34  1  0  0  0  0
 18 19  1  0  0  0  0
 18 20  1  0  0  0  0
 19 35  1  0  0  0  0
 19 36  1  0  0  0  0
 19 37  1  0  0  0  0
 20 21  1  0  0  0  0
 20 22  2  0  0  0  0
 22 23  1  0  0  0  0
 22 39  1  0  0  0  0
 23 38  1  0  0  0  0
 40 41  1  0  0  0  0
M  CHG  1   3  -1
M  END
$$$$
