p38a_2m
 OpenBabel02232411163D
Structure written by MMmdl.
 50 54  0  0  0  0  0  0  0  0999 V2000
   36.3970   36.1130   15.7180 C   0  0  0  0  0  0  0  0  0  0  0  0
   34.5680   34.9810   21.1740 C   0  0  0  0  0  0  0  0  0  0  0  0
   35.7810   35.6070   16.8580 C   0  0  0  0  0  0  0  0  0  0  0  0
   33.9090   39.0390   23.7330 C   0  0  0  0  0  0  0  0  0  0  0  0
   34.7820   37.8490   21.4020 C   0  0  0  0  0  0  0  0  0  0  0  0
   35.3140   37.1920   20.2370 C   0  0  0  0  0  0  0  0  0  0  0  0
   37.6860   36.6340   15.8850 C   0  0  0  0  0  0  0  0  0  0  0  0
   38.3630   36.6390   17.1070 C   0  0  0  0  0  0  0  0  0  0  0  0
   37.7080   36.1590   18.2470 C   0  0  0  0  0  0  0  0  0  0  0  0
   34.2700   37.0750   22.4850 C   0  0  0  0  0  0  0  0  0  0  0  0
   34.7650   39.2600   21.5610 C   0  0  0  0  0  0  0  0  0  0  0  0
   35.2410   35.8440   20.1620 C   0  0  0  0  0  0  0  0  0  0  0  0
   36.4160   35.6430   18.1160 C   0  0  0  0  0  0  0  0  0  0  0  0
   34.5730   35.0630   16.7870 F   0  0  0  0  0  0  0  0  0  0  0  0
   35.7360   35.0090   19.1630 O   0  0  0  0  0  0  0  0  0  0  0  0
   34.3510   39.8680   22.6840 N   0  0  0  0  0  0  0  0  0  0  0  0
   34.3290   33.8040   21.0390 O   0  0  0  0  0  0  0  0  0  0  0  0
   34.1850   35.6730   22.3800 N   0  0  0  0  0  0  0  0  0  0  0  0
   33.8380   37.6610   23.6450 N   0  0  0  0  0  0  0  0  0  0  0  0
   33.4560   39.6450   24.8860 N   0  0  0  0  0  0  0  0  0  0  0  0
   35.8940   36.1240   14.7490 H   0  0  0  0  0  0  0  0  0  0  0  0
   35.7720   37.8100   19.4620 H   0  0  0  0  0  0  0  0  0  0  0  0
   39.3770   37.0380   17.1890 H   0  0  0  0  0  0  0  0  0  0  0  0
   38.2020   36.2160   19.2200 H   0  0  0  0  0  0  0  0  0  0  0  0
   35.1050   39.9070   20.7360 H   0  0  0  0  0  0  0  0  0  0  0  0
   33.6220   40.6620   25.0220 H   0  0  0  0  0  0  0  0  0  0  0  0
   38.2770   37.1840   14.8270 F   0  0  0  0  0  0  0  0  0  0  0  0
   31.9630   38.8870   28.3190 C   0  0  0  0  0  0  0  0  0  0  0  0
   32.1560   39.6090   26.9790 C   0  0  0  0  0  0  0  0  0  0  0  0
   33.2110   38.8610   26.1360 C   0  0  0  0  0  0  0  0  0  0  0  0
   34.5190   38.6880   26.9390 C   0  0  0  0  0  0  0  0  0  0  0  0
   34.2160   38.0190   28.2850 C   0  0  0  0  0  0  0  0  0  0  0  0
   33.2130   38.7470   29.0320 O   0  0  0  0  0  0  0  0  0  0  0  0
   31.5160   37.8770   28.1660 H   0  0  0  0  0  0  0  0  0  0  0  0
   31.3560   39.4970   29.0260 H   0  0  0  0  0  0  0  0  0  0  0  0
   32.4900   40.6570   27.1630 H   0  0  0  0  0  0  0  0  0  0  0  0
   31.1890   39.6380   26.4250 H   0  0  0  0  0  0  0  0  0  0  0  0
   32.8080   37.8470   25.8560 H   0  0  0  0  0  0  0  0  0  0  0  0
   35.2320   38.0450   26.3690 H   0  0  0  0  0  0  0  0  0  0  0  0
   34.9990   39.6820   27.1060 H   0  0  0  0  0  0  0  0  0  0  0  0
   33.8660   36.9700   28.1370 H   0  0  0  0  0  0  0  0  0  0  0  0
   35.0970   38.0620   28.9660 H   0  0  0  0  0  0  0  0  0  0  0  0
   33.6580   34.9030   23.5270 C   0  0  0  0  0  0  0  0  0  0  0  0
   34.3920   34.9470   24.8640 C   0  0  0  0  0  0  0  0  0  0  0  0
   34.4110   33.6800   24.0360 C   0  0  0  0  0  0  0  0  0  0  0  0
   32.5510   34.8980   23.5360 H   0  0  0  0  0  0  0  0  0  0  0  0
   35.3130   35.5320   24.9740 H   0  0  0  0  0  0  0  0  0  0  0  0
   33.7800   34.9880   25.7780 H   0  0  0  0  0  0  0  0  0  0  0  0
   35.3550   33.3650   23.5790 H   0  0  0  0  0  0  0  0  0  0  0  0
   33.8090   32.8220   24.3750 H   0  0  0  0  0  0  0  0  0  0  0  0
  1  3  2  0  0  0  0
  1  7  1  0  0  0  0
  1 21  1  0  0  0  0
  2 12  1  0  0  0  0
  2 17  2  0  0  0  0
  2 18  1  0  0  0  0
  3 13  1  0  0  0  0
  3 14  1  0  0  0  0
  4 16  2  0  0  0  0
  4 19  1  0  0  0  0
  4 20  1  0  0  0  0
  5  6  1  0  0  0  0
  5 10  1  0  0  0  0
  5 11  2  0  0  0  0
  6 12  2  0  0  0  0
  6 22  1  0  0  0  0
  7  8  2  0  0  0  0
  7 27  1  0  0  0  0
  8  9  1  0  0  0  0
  8 23  1  0  0  0  0
  9 13  2  0  0  0  0
  9 24  1  0  0  0  0
 10 18  1  0  0  0  0
 10 19  2  0  0  0  0
 11 16  1  0  0  0  0
 11 25  1  0  0  0  0
 12 15  1  0  0  0  0
 13 15  1  0  0  0  0
 18 43  1  0  0  0  0
 20 26  1  0  0  0  0
 20 30  1  0  0  0  0
 28 29  1  0  0  0  0
 28 33  1  0  0  0  0
 28 34  1  0  0  0  0
 28 35  1  0  0  0  0
 29 30  1  0  0  0  0
 29 36  1  0  0  0  0
 29 37  1  0  0  0  0
 30 31  1  0  0  0  0
 30 38  1  0  0  0  0
 31 32  1  0  0  0  0
 31 39  1  0  0  0  0
 31 40  1  0  0  0  0
 32 33  1  0  0  0  0
 32 41  1  0  0  0  0
 32 42  1  0  0  0  0
 43 44  1  0  0  0  0
 43 45  1  0  0  0  0
 43 46  1  0  0  0  0
 44 45  1  0  0  0  0
 44 47  1  0  0  0  0
 44 48  1  0  0  0  0
 45 49  1  0  0  0  0
 45 50  1  0  0  0  0
M  END
$$$$
