p38a_2k
 OpenBabel02232411163D
Structure written by MMmdl.
 43 46  0  0  0  0  0  0  0  0999 V2000
   36.4100   36.1230   15.6860 C   0  0  0  0  0  0  0  0  0  0  0  0
   34.4710   34.8890   21.0610 C   0  0  0  0  0  0  0  0  0  0  0  0
   35.7880   35.5960   16.8130 C   0  0  0  0  0  0  0  0  0  0  0  0
   33.8050   38.8380   23.7660 C   0  0  0  0  0  0  0  0  0  0  0  0
   34.7540   37.7430   21.4120 C   0  0  0  0  0  0  0  0  0  0  0  0
   35.3170   37.1110   20.2480 C   0  0  0  0  0  0  0  0  0  0  0  0
   37.6960   36.6470   15.8700 C   0  0  0  0  0  0  0  0  0  0  0  0
   38.3620   36.6390   17.0980 C   0  0  0  0  0  0  0  0  0  0  0  0
   37.6990   36.1410   18.2260 C   0  0  0  0  0  0  0  0  0  0  0  0
   34.1110   36.9500   22.4040 C   0  0  0  0  0  0  0  0  0  0  0  0
   34.8190   39.1400   21.6660 C   0  0  0  0  0  0  0  0  0  0  0  0
   35.2080   35.7680   20.1120 C   0  0  0  0  0  0  0  0  0  0  0  0
   36.4120   35.6180   18.0760 C   0  0  0  0  0  0  0  0  0  0  0  0
   33.4650   35.0270   22.9510 H   0  0  0  0  0  0  0  0  0  0  0  0
   34.5850   35.0440   16.7230 F   0  0  0  0  0  0  0  0  0  0  0  0
   35.7280   34.9590   19.1050 O   0  0  0  0  0  0  0  0  0  0  0  0
   34.3730   39.6980   22.8010 N   0  0  0  0  0  0  0  0  0  0  0  0
   34.2790   33.6990   20.9410 O   0  0  0  0  0  0  0  0  0  0  0  0
   33.9600   35.5680   22.2150 N   0  0  0  0  0  0  0  0  0  0  0  0
   33.6270   37.4770   23.5720 N   0  0  0  0  0  0  0  0  0  0  0  0
   33.4090   39.3950   24.9540 N   0  0  0  0  0  0  0  0  0  0  0  0
   35.9140   36.1480   14.7130 H   0  0  0  0  0  0  0  0  0  0  0  0
   35.8290   37.7440   19.5200 H   0  0  0  0  0  0  0  0  0  0  0  0
   39.3730   37.0420   17.1930 H   0  0  0  0  0  0  0  0  0  0  0  0
   38.1840   36.1880   19.2040 H   0  0  0  0  0  0  0  0  0  0  0  0
   35.2520   39.8150   20.9090 H   0  0  0  0  0  0  0  0  0  0  0  0
   33.5470   40.4120   25.1140 H   0  0  0  0  0  0  0  0  0  0  0  0
   38.2930   37.2120   14.8240 F   0  0  0  0  0  0  0  0  0  0  0  0
   33.1040   40.1920   28.0160 C   0  0  0  0  0  0  0  0  0  0  0  0
   32.0880   39.5870   27.0370 C   0  0  0  0  0  0  0  0  0  0  0  0
   32.7300   38.6060   26.0350 C   0  0  0  0  0  0  0  0  0  0  0  0
   33.6970   37.6440   26.7540 C   0  0  0  0  0  0  0  0  0  0  0  0
   34.6470   38.3700   27.7060 C   0  0  0  0  0  0  0  0  0  0  0  0
   33.9170   39.1850   28.6530 O   0  0  0  0  0  0  0  0  0  0  0  0
   32.5900   40.6700   28.8810 H   0  0  0  0  0  0  0  0  0  0  0  0
   33.7730   40.9130   27.4940 H   0  0  0  0  0  0  0  0  0  0  0  0
   31.5890   40.4170   26.4790 H   0  0  0  0  0  0  0  0  0  0  0  0
   31.3030   39.0280   27.6040 H   0  0  0  0  0  0  0  0  0  0  0  0
   31.9110   37.9990   25.5480 H   0  0  0  0  0  0  0  0  0  0  0  0
   33.0730   36.9090   27.3270 H   0  0  0  0  0  0  0  0  0  0  0  0
   34.2930   37.0580   26.0100 H   0  0  0  0  0  0  0  0  0  0  0  0
   35.1740   37.6520   28.3760 H   0  0  0  0  0  0  0  0  0  0  0  0
   35.3600   39.0180   27.1490 H   0  0  0  0  0  0  0  0  0  0  0  0
  1  3  2  0  0  0  0
  1  7  1  0  0  0  0
  1 22  1  0  0  0  0
  2 12  1  0  0  0  0
  2 18  2  0  0  0  0
  2 19  1  0  0  0  0
  3 13  1  0  0  0  0
  3 15  1  0  0  0  0
  4 17  2  0  0  0  0
  4 20  1  0  0  0  0
  4 21  1  0  0  0  0
  5  6  1  0  0  0  0
  5 10  1  0  0  0  0
  5 11  2  0  0  0  0
  6 12  2  0  0  0  0
  6 23  1  0  0  0  0
  7  8  2  0  0  0  0
  7 28  1  0  0  0  0
  8  9  1  0  0  0  0
  8 24  1  0  0  0  0
  9 13  2  0  0  0  0
  9 25  1  0  0  0  0
 10 19  1  0  0  0  0
 10 20  2  0  0  0  0
 11 17  1  0  0  0  0
 11 26  1  0  0  0  0
 12 16  1  0  0  0  0
 13 16  1  0  0  0  0
 14 19  1  0  0  0  0
 21 27  1  0  0  0  0
 21 31  1  0  0  0  0
 29 30  1  0  0  0  0
 29 34  1  0  0  0  0
 29 35  1  0  0  0  0
 29 36  1  0  0  0  0
 30 31  1  0  0  0  0
 30 37  1  0  0  0  0
 30 38  1  0  0  0  0
 31 32  1  0  0  0  0
 31 39  1  0  0  0  0
 32 33  1  0  0  0  0
 32 40  1  0  0  0  0
 32 41  1  0  0  0  0
 33 34  1  0  0  0  0
 33 42  1  0  0  0  0
 33 43  1  0  0  0  0
M  END
$$$$
