CAT-13f
 OpenBabel02232411143D
Structure written by MMmdl.
 49 52  0  0  1  0  0  0  0  0999 V2000
   11.6430   -1.8810    1.1030 C   0  0  0  0  0  0  0  0  0  0  0  0
   12.9800   -1.6810    0.5040 N   0  0  0  0  0  0  0  0  0  0  0  0
   14.1800   -1.9590    1.1700 C   0  0  0  0  0  0  0  0  0  0  0  0
   14.3400   -2.1960    2.5030 N   0  0  0  0  0  0  0  0  0  0  0  0
   15.2430   -1.9440    0.2570 N   0  3  0  0  0  0  0  0  0  0  0  0
   14.7100   -2.0820   -1.1540 C   0  0  1  0  0  0  0  0  0  0  0  0
   15.3420   -1.0680   -2.0910 C   0  0  0  0  0  0  0  0  0  0  0  0
   15.9860   -1.4540   -3.2750 C   0  0  0  0  0  0  0  0  0  0  0  0
   16.4340   -0.4850   -4.1770 C   0  0  0  0  0  0  0  0  0  0  0  0
   16.2260    0.8710   -3.9230 C   0  0  0  0  0  0  0  0  0  0  0  0
   15.5980    1.2700   -2.7310 C   0  0  0  0  0  0  0  0  0  0  0  0
   15.3020    2.6940   -2.4640 C   0  0  0  0  0  0  0  0  0  0  0  0
   15.5050    3.2390   -1.1870 C   0  0  0  0  0  0  0  0  0  0  0  0
   15.0750    4.5360   -0.8970 C   0  0  0  0  0  0  0  0  0  0  0  0
   14.4780    5.3180   -1.8900 C   0  0  0  0  0  0  0  0  0  0  0  0
   14.3580    4.7910   -3.1790 C   0  0  0  0  0  0  0  0  0  0  0  0
   13.7010    5.7690   -4.4310 Cl  0  0  0  0  0  0  0  0  0  0  0  0
   14.7440    3.4850   -3.4820 C   0  0  0  0  0  0  0  0  0  0  0  0
   15.1810    0.2970   -1.8100 C   0  0  0  0  0  0  0  0  0  0  0  0
   14.7620   -3.5520   -1.6590 C   0  0  0  0  0  0  0  0  0  0  0  0
   16.2030   -4.1030   -1.5800 C   0  0  0  0  0  0  0  0  0  0  0  0
   16.2270   -5.1650   -0.4660 C   0  0  0  0  0  0  0  0  0  0  0  0
   14.8300   -5.1950    0.1780 C   0  0  0  0  0  0  0  0  0  0  0  0
   13.8910   -4.5350   -0.8430 C   0  0  0  0  0  0  0  0  0  0  0  0
   13.2070   -1.6990   -0.9600 C   0  0  0  0  0  0  0  0  0  0  0  0
   12.3440   -1.4310   -1.7330 O   0  0  0  0  0  0  0  0  0  0  0  0
   11.0400   -0.9450    0.9520 H   0  0  0  0  0  0  0  0  0  0  0  0
   11.1280   -2.7500    0.6090 H   0  0  0  0  0  0  0  0  0  0  0  0
   11.7200   -2.0990    2.1980 H   0  0  0  0  0  0  0  0  0  0  0  0
   13.6520   -1.8600    3.2210 H   0  0  0  0  0  0  0  0  0  0  0  0
   16.1350   -2.4240    0.5600 H   0  0  0  0  0  0  0  0  0  0  0  0
   16.1460   -2.5010   -3.5290 H   0  0  0  0  0  0  0  0  0  0  0  0
   16.9440   -0.8010   -5.0930 H   0  0  0  0  0  0  0  0  0  0  0  0
   16.5510    1.6080   -4.6620 H   0  0  0  0  0  0  0  0  0  0  0  0
   15.9840    2.6400   -0.4090 H   0  0  0  0  0  0  0  0  0  0  0  0
   15.1930    4.9240    0.1190 H   0  0  0  0  0  0  0  0  0  0  0  0
   14.0930    6.3100   -1.6530 H   0  0  0  0  0  0  0  0  0  0  0  0
   14.5990    3.0780   -4.4880 H   0  0  0  0  0  0  0  0  0  0  0  0
   14.7180    0.5980   -0.8700 H   0  0  0  0  0  0  0  0  0  0  0  0
   14.3950   -3.5550   -2.7160 H   0  0  0  0  0  0  0  0  0  0  0  0
   16.4970   -4.5510   -2.5490 H   0  0  0  0  0  0  0  0  0  0  0  0
   16.9350   -3.2980   -1.3360 H   0  0  0  0  0  0  0  0  0  0  0  0
   16.4810   -6.1640   -0.8660 H   0  0  0  0  0  0  0  0  0  0  0  0
   17.0020   -4.8680    0.2620 H   0  0  0  0  0  0  0  0  0  0  0  0
   14.5020   -6.2340    0.4010 H   0  0  0  0  0  0  0  0  0  0  0  0
   14.8340   -4.6120    1.1280 H   0  0  0  0  0  0  0  0  0  0  0  0
   13.0240   -4.0740   -0.3390 H   0  0  0  0  0  0  0  0  0  0  0  0
   13.5010   -5.3130   -1.5390 H   0  0  0  0  0  0  0  0  0  0  0  0
   15.3190   -2.2920    2.8930 H   0  0  0  0  0  0  0  0  0  0  0  0
  1  2  1  0  0  0  0
  1 27  1  0  0  0  0
  1 28  1  0  0  0  0
  1 29  1  0  0  0  0
  2  3  1  0  0  0  0
  2 25  1  0  0  0  0
  3  4  1  0  0  0  0
  3  5  2  0  0  0  0
  4 30  1  0  0  0  0
  4 49  1  0  0  0  0
  5  6  1  0  0  0  0
  5 31  1  0  0  0  0
  6  7  1  6  0  0  0
  6 20  1  0  0  0  0
  6 25  1  0  0  0  0
  7  8  2  0  0  0  0
  7 19  1  0  0  0  0
  8  9  1  0  0  0  0
  8 32  1  0  0  0  0
  9 10  2  0  0  0  0
  9 33  1  0  0  0  0
 10 11  1  0  0  0  0
 10 34  1  0  0  0  0
 11 12  1  0  0  0  0
 11 19  2  0  0  0  0
 12 13  2  0  0  0  0
 12 18  1  0  0  0  0
 13 14  1  0  0  0  0
 13 35  1  0  0  0  0
 14 15  2  0  0  0  0
 14 36  1  0  0  0  0
 15 16  1  0  0  0  0
 15 37  1  0  0  0  0
 16 17  1  0  0  0  0
 16 18  2  0  0  0  0
 18 38  1  0  0  0  0
 19 39  1  0  0  0  0
 20 21  1  0  0  0  0
 20 24  1  0  0  0  0
 20 40  1  0  0  0  0
 21 22  1  0  0  0  0
 21 41  1  0  0  0  0
 21 42  1  0  0  0  0
 22 23  1  0  0  0  0
 22 43  1  0  0  0  0
 22 44  1  0  0  0  0
 23 24  1  0  0  0  0
 23 45  1  0  0  0  0
 23 46  1  0  0  0  0
 24 47  1  0  0  0  0
 24 48  1  0  0  0  0
 25 26  2  0  0  0  0
M  CHG  1   5   1
M  END
$$$$
