18639-1
 OpenBabel02232411163D
Structure written by MMmdl.
 48 49  0  0  0  0  0  0  0  0999 V2000
   23.2210   10.7850   29.0600 C   0  0  0  0  0  0  0  0  0  0  0  0
   23.4970   11.0340   30.5280 C   0  0  0  0  0  0  0  0  0  0  0  0
   22.2310   11.1490   31.2830 O   0  0  0  0  0  0  0  0  0  0  0  0
   21.5680   10.0220   31.6300 C   0  0  0  0  0  0  0  0  0  0  0  0
   22.0360    8.8230   31.2150 N   0  0  0  0  0  0  0  0  0  0  0  0
   21.2890    7.7000   31.5290 C   0  0  0  0  0  0  0  0  0  0  0  0
   20.1210    7.7570   32.2810 C   0  0  0  0  0  0  0  0  0  0  0  0
   19.6510    9.0190   32.7380 C   0  0  0  0  0  0  0  0  0  0  0  0
   18.4970    9.0800   33.4750 N   0  0  0  0  0  0  0  0  0  0  0  0
   20.3840   10.2030   32.4040 C   0  0  0  0  0  0  0  0  0  0  0  0
   19.9890   11.5100   32.7610 C   0  0  0  0  0  0  0  0  0  0  0  0
   19.7150   12.6090   33.0150 N   0  0  0  0  0  0  0  0  0  0  0  0
   21.8660    6.5300   30.9820 N   0  0  0  0  0  0  0  0  0  0  0  0
   21.2620    5.2610   30.8800 C   0  0  0  0  0  0  0  0  0  0  0  0
   20.1650    5.0140   31.3310 O   0  0  0  0  0  0  0  0  0  0  0  0
   22.0900    4.2620   30.0790 C   0  0  0  0  0  0  0  0  0  0  0  0
   23.4600    3.9990   30.6320 C   0  0  0  0  0  0  0  0  0  0  0  0
   24.5530    4.8620   30.3060 C   0  0  0  0  0  0  0  0  0  0  0  0
   24.1900    5.9060   29.4640 O   0  0  0  0  0  0  0  0  0  0  0  0
   25.1390    6.9980   29.3000 C   0  0  0  0  0  0  0  0  0  0  0  0
   25.8350    4.6270   30.7780 C   0  0  0  0  0  0  0  0  0  0  0  0
   26.0720    3.5160   31.6140 C   0  0  0  0  0  0  0  0  0  0  0  0
   27.4260    3.2660   32.1140 N   0  3  0  0  0  0  0  0  0  0  0  0
   27.5650    2.4840   33.0420 O   0  5  0  0  0  0  0  0  0  0  0  0
   28.3640    3.8460   31.5790 O   0  0  0  0  0  0  0  0  0  0  0  0
   25.0040    2.6480   31.9430 C   0  0  0  0  0  0  0  0  0  0  0  0
   23.7060    2.8970   31.4360 C   0  0  0  0  0  0  0  0  0  0  0  0
   25.3560    1.6150   32.7570 O   0  0  0  0  0  0  0  0  0  0  0  0
   24.3620    0.5770   33.0050 C   0  0  0  0  0  0  0  0  0  0  0  0
   24.1820   10.8380   28.4910 H   0  0  0  0  0  0  0  0  0  0  0  0
   22.5280   11.5490   28.6420 H   0  0  0  0  0  0  0  0  0  0  0  0
   22.7770    9.7740   28.8980 H   0  0  0  0  0  0  0  0  0  0  0  0
   23.9090   12.0550   30.7130 H   0  0  0  0  0  0  0  0  0  0  0  0
   24.1280   10.2350   30.9790 H   0  0  0  0  0  0  0  0  0  0  0  0
   19.5500    6.8550   32.5070 H   0  0  0  0  0  0  0  0  0  0  0  0
   17.9880    8.2150   33.7420 H   0  0  0  0  0  0  0  0  0  0  0  0
   18.1070    9.9720   33.7810 H   0  0  0  0  0  0  0  0  0  0  0  0
   22.7890    6.6770   30.5010 H   0  0  0  0  0  0  0  0  0  0  0  0
   21.5200    3.2960   30.0210 H   0  0  0  0  0  0  0  0  0  0  0  0
   22.1960    4.6750   29.0350 H   0  0  0  0  0  0  0  0  0  0  0  0
   25.4560    7.3940   30.2880 H   0  0  0  0  0  0  0  0  0  0  0  0
   25.9950    6.6460   28.6860 H   0  0  0  0  0  0  0  0  0  0  0  0
   24.5180    7.7430   28.7500 H   0  0  0  0  0  0  0  0  0  0  0  0
   26.6720    5.2800   30.5040 H   0  0  0  0  0  0  0  0  0  0  0  0
   22.8930    2.2070   31.6750 H   0  0  0  0  0  0  0  0  0  0  0  0
   24.9500   -0.1530   33.6100 H   0  0  0  0  0  0  0  0  0  0  0  0
   23.5150    0.9910   33.5920 H   0  0  0  0  0  0  0  0  0  0  0  0
   24.0340    0.1250   32.0430 H   0  0  0  0  0  0  0  0  0  0  0  0
  1  2  1  0  0  0  0
  1 30  1  0  0  0  0
  1 31  1  0  0  0  0
  1 32  1  0  0  0  0
  2  3  1  0  0  0  0
  2 33  1  0  0  0  0
  2 34  1  0  0  0  0
  3  4  1  0  0  0  0
  4 10  2  0  0  0  0
  4  5  1  0  0  0  0
  5  6  2  0  0  0  0
  6  7  1  0  0  0  0
  6 13  1  0  0  0  0
  7  8  2  0  0  0  0
  7 35  1  0  0  0  0
  8  9  1  0  0  0  0
  8 10  1  0  0  0  0
  9 36  1  0  0  0  0
  9 37  1  0  0  0  0
 10 11  1  0  0  0  0
 11 12  3  0  0  0  0
 13 14  1  0  0  0  0
 13 38  1  0  0  0  0
 14 15  2  0  0  0  0
 14 16  1  0  0  0  0
 16 17  1  0  0  0  0
 16 39  1  0  0  0  0
 16 40  1  0  0  0  0
 17 27  2  0  0  0  0
 17 18  1  0  0  0  0
 18 19  1  0  0  0  0
 18 21  2  0  0  0  0
 19 20  1  0  0  0  0
 20 41  1  0  0  0  0
 20 42  1  0  0  0  0
 20 43  1  0  0  0  0
 21 22  1  0  0  0  0
 21 44  1  0  0  0  0
 22 23  1  0  0  0  0
 22 26  2  0  0  0  0
 23 24  1  0  0  0  0
 23 25  2  0  0  0  0
 26 27  1  0  0  0  0
 26 28  1  0  0  0  0
 27 45  1  0  0  0  0
 28 29  1  0  0  0  0
 29 46  1  0  0  0  0
 29 47  1  0  0  0  0
 29 48  1  0  0  0  0
M  CHG  2  23   1  24  -1
M  END
$$$$
