47
                    3D
 Schrodinger Suite 2022-3.
 43 46  0  0  1  0  0  0  0  0999 V2000
    3.5820  -48.6270    7.2340 O   0  0  0  0  0  0  0  0  0  0  0  0
    3.1570  -49.5370    6.5110 C   0  0  0  0  0  0  0  0  0  0  0  0
    3.8360  -50.3410    5.8440 O   0  5  0  0  0  0  0  0  0  0  0  0
    1.6320  -49.7440    6.4240 C   0  0  0  0  0  0  0  0  0  0  0  0
   -0.3050  -50.9550    6.5650 C   0  0  0  0  0  0  0  0  0  0  0  0
   -1.2880  -51.9370    6.7740 C   0  0  0  0  0  0  0  0  0  0  0  0
   -2.5990  -51.6050    6.4650 C   0  0  0  0  0  0  0  0  0  0  0  0
   -2.9310  -50.3270    5.9560 C   0  0  0  0  0  0  0  0  0  0  0  0
   -1.9650  -49.3520    5.7490 C   0  0  0  0  0  0  0  0  0  0  0  0
   -0.6250  -49.6440    6.0560 C   0  0  0  0  0  0  0  0  0  0  0  0
    0.6150  -48.9000    5.9920 C   0  0  0  0  0  0  0  0  0  0  0  0
    0.7140  -47.4800    5.5620 C   0  0  0  0  0  0  0  0  0  0  0  0
    0.7050  -46.5050    6.7550 C   0  0  0  0  0  0  0  0  0  0  0  0
   -0.6290  -46.4780    7.4980 C   0  0  0  0  0  0  0  0  0  0  0  0
   -1.5190  -45.8020    6.5360 O   0  0  0  0  0  0  0  0  0  0  0  0
   -2.8020  -45.5340    6.8890 C   0  0  0  0  0  0  0  0  0  0  0  0
   -4.7370  -45.6220    8.3490 C   0  0  0  0  0  0  0  0  0  0  0  0
   -3.4320  -45.9620    8.1050 C   0  0  0  0  0  0  0  0  0  0  0  0
   -1.0380  -52.9220    7.1680 H   0  0  0  0  0  0  0  0  0  0  0  0
   -3.3950  -52.3340    6.6150 H   0  0  0  0  0  0  0  0  0  0  0  0
   -3.9760  -50.1160    5.7240 H   0  0  0  0  0  0  0  0  0  0  0  0
   -2.2490  -48.3750    5.3560 H   0  0  0  0  0  0  0  0  0  0  0  0
   -0.1620  -47.2300    4.9070 H   0  0  0  0  0  0  0  0  0  0  0  0
    1.6490  -47.3080    4.9770 H   0  0  0  0  0  0  0  0  0  0  0  0
    0.9060  -45.4740    6.3790 H   0  0  0  0  0  0  0  0  0  0  0  0
    1.4990  -46.8070    7.4810 H   0  0  0  0  0  0  0  0  0  0  0  0
   -0.5940  -45.8440    8.4080 H   0  0  0  0  0  0  0  0  0  0  0  0
   -1.0480  -47.4910    7.6780 H   0  0  0  0  0  0  0  0  0  0  0  0
   -2.8910  -46.5720    8.8290 H   0  0  0  0  0  0  0  0  0  0  0  0
   -3.4960  -44.7870    5.9460 C   0  0  0  0  0  0  0  0  0  0  0  0
   -5.2410  -45.9430    9.2670 H   0  0  0  0  0  0  0  0  0  0  0  0
   -4.8440  -44.4400    6.1810 C   0  0  0  0  0  0  0  0  0  0  0  0
   -5.4800  -44.8550    7.3900 C   0  0  0  0  0  0  0  0  0  0  0  0
   -6.8150  -44.5720    7.6510 N   0  0  0  0  0  0  0  0  0  0  0  0
   -7.5090  -43.9170    6.7270 C   0  0  0  0  0  0  0  0  0  0  0  0
   -6.9440  -43.4640    5.4870 C   0  0  0  0  0  0  0  0  0  0  0  0
   -5.6250  -43.7130    5.2220 C   0  0  0  0  0  0  0  0  0  0  0  0
   -8.5680  -43.7180    6.9240 H   0  0  0  0  0  0  0  0  0  0  0  0
   -7.5810  -42.9350    4.7840 H   0  0  0  0  0  0  0  0  0  0  0  0
   -5.1500  -43.3820    4.2960 H   0  0  0  0  0  0  0  0  0  0  0  0
   -3.0200  -44.4700    5.0240 H   0  0  0  0  0  0  0  0  0  0  0  0
    1.0810  -50.9890    6.7850 N   0  0  0  0  0  0  0  0  0  0  0  0
    1.5720  -51.8080    7.1250 H   0  0  0  0  0  0  0  0  0  0  0  0
  1  2  2  0  0  0  0
  2  3  1  0  0  0  0
  2  4  1  0  0  0  0
  4 11  2  0  0  0  0
  4 42  1  0  0  0  0
  5  6  1  0  0  0  0
  5 10  2  0  0  0  0
  5 42  1  0  0  0  0
  6  7  2  0  0  0  0
  6 19  1  0  0  0  0
  7  8  1  0  0  0  0
  7 20  1  0  0  0  0
  8  9  2  0  0  0  0
  8 21  1  0  0  0  0
  9 10  1  0  0  0  0
  9 22  1  0  0  0  0
 10 11  1  0  0  0  0
 11 12  1  0  0  0  0
 12 23  1  0  0  0  0
 12 24  1  0  0  0  0
 12 13  1  0  0  0  0
 13 14  1  0  0  0  0
 13 25  1  0  0  0  0
 13 26  1  0  0  0  0
 14 15  1  0  0  0  0
 14 27  1  0  0  0  0
 14 28  1  0  0  0  0
 15 16  1  0  0  0  0
 16 18  2  0  0  0  0
 16 30  1  0  0  0  0
 17 18  1  0  0  0  0
 17 31  1  0  0  0  0
 17 33  2  0  0  0  0
 18 29  1  0  0  0  0
 30 32  2  0  0  0  0
 30 41  1  0  0  0  0
 32 33  1  0  0  0  0
 32 37  1  0  0  0  0
 33 34  1  0  0  0  0
 34 35  2  0  0  0  0
 35 36  1  0  0  0  0
 35 38  1  0  0  0  0
 36 37  2  0  0  0  0
 36 39  1  0  0  0  0
 37 40  1  0  0  0  0
 42 43  1  0  0  0  0
M  CHG  1   3  -1
M  END
$$$$
