3a
 OpenBabel02232411173D

 55 57  0  0  1  0  0  0  0  0999 V2000
   18.1660  -13.0820   21.5010 N   0  0  0  0  0  0  0  0  0  0  0  0
   17.9070  -11.7380   20.8980 C   0  0  2  0  0  0  0  0  0  0  0  0
   17.2830  -13.6490   22.3820 C   0  0  0  0  0  0  0  0  0  0  0  0
   16.2470  -13.0700   22.7020 O   0  0  0  0  0  0  0  0  0  0  0  0
   16.4840  -11.6540   20.2800 C   0  0  0  0  0  0  0  0  0  0  0  0
   15.9830  -12.5450   19.6100 O   0  0  0  0  0  0  0  0  0  0  0  0
   18.9930  -11.5600   19.8180 C   0  0  0  0  0  0  0  0  0  0  0  0
   17.6310  -15.0490   22.9660 C   0  0  2  0  0  0  0  0  0  0  0  0
   15.8690  -10.4310   20.4800 N   0  0  0  0  0  0  0  0  0  0  0  0
   20.0730  -12.6250   20.0820 C   0  0  0  0  0  0  0  0  0  0  0  0
   16.3510  -15.9050   22.9530 N   0  3  0  0  0  0  0  0  0  0  0  0
   18.1310  -14.9560   24.4210 C   0  0  0  0  0  0  0  0  0  0  0  0
   14.4800  -10.1270   20.0570 C   0  0  0  0  0  0  0  0  0  0  0  0
   19.4350  -13.6900   20.9930 C   0  0  0  0  0  0  0  0  0  0  0  0
   19.5770  -14.5380   24.5270 C   0  0  0  0  0  0  0  0  0  0  0  0
   13.4370  -10.6630   21.0080 C   0  0  0  0  0  0  0  0  0  0  0  0
   19.9200  -13.3660   25.2110 C   0  0  0  0  0  0  0  0  0  0  0  0
   12.8430  -11.9090   20.7700 C   0  0  0  0  0  0  0  0  0  0  0  0
   21.2600  -12.9870   25.3400 C   0  0  0  0  0  0  0  0  0  0  0  0
   11.8520  -12.3760   21.6390 C   0  0  0  0  0  0  0  0  0  0  0  0
   22.2710  -13.7980   24.8190 C   0  0  0  0  0  0  0  0  0  0  0  0
   11.4290  -11.5930   22.7120 C   0  0  0  0  0  0  0  0  0  0  0  0
   21.9330  -14.9850   24.1580 C   0  0  0  0  0  0  0  0  0  0  0  0
   12.0270  -10.3460   22.9610 C   0  0  0  0  0  0  0  0  0  0  0  0
   20.5940  -15.3520   24.0040 C   0  0  0  0  0  0  0  0  0  0  0  0
   13.0430   -9.8900   22.1090 C   0  0  0  0  0  0  0  0  0  0  0  0
   18.0410  -10.9630   21.7030 H   0  0  0  0  0  0  0  0  0  0  0  0
   18.5720  -11.6960   18.7950 H   0  0  0  0  0  0  0  0  0  0  0  0
   19.4230  -10.5420   19.9100 H   0  0  0  0  0  0  0  0  0  0  0  0
   18.3840  -15.6110   22.3410 H   0  0  0  0  0  0  0  0  0  0  0  0
   16.3150   -9.7310   21.1040 H   0  0  0  0  0  0  0  0  0  0  0  0
   20.4130  -13.0930   19.1280 H   0  0  0  0  0  0  0  0  0  0  0  0
   20.9560  -12.1710   20.5870 H   0  0  0  0  0  0  0  0  0  0  0  0
   16.5780  -16.8760   23.3210 H   0  0  0  0  0  0  0  0  0  0  0  0
   15.6090  -15.4530   23.5790 H   0  0  0  0  0  0  0  0  0  0  0  0
   15.9810  -16.0090   21.9680 H   0  0  0  0  0  0  0  0  0  0  0  0
   17.4740  -14.2570   25.0000 H   0  0  0  0  0  0  0  0  0  0  0  0
   18.0500  -15.9740   24.8990 H   0  0  0  0  0  0  0  0  0  0  0  0
   14.4120   -9.0040   20.0000 H   0  0  0  0  0  0  0  0  0  0  0  0
   14.3210  -10.5450   19.0230 H   0  0  0  0  0  0  0  0  0  0  0  0
   20.1090  -13.9360   21.8530 H   0  0  0  0  0  0  0  0  0  0  0  0
   19.2070  -14.6200   20.4110 H   0  0  0  0  0  0  0  0  0  0  0  0
   19.1430  -12.7580   25.6660 H   0  0  0  0  0  0  0  0  0  0  0  0
   13.1410  -12.5180   19.9150 H   0  0  0  0  0  0  0  0  0  0  0  0
   21.4900  -12.0530   25.8560 H   0  0  0  0  0  0  0  0  0  0  0  0
   11.4040  -13.3600   21.4790 H   0  0  0  0  0  0  0  0  0  0  0  0
   23.3220  -13.5200   24.9330 H   0  0  0  0  0  0  0  0  0  0  0  0
   22.7110  -15.6430   23.7590 H   0  0  0  0  0  0  0  0  0  0  0  0
   20.3390  -16.2810   23.4880 H   0  0  0  0  0  0  0  0  0  0  0  0
   13.5260   -8.9320   22.3010 H   0  0  0  0  0  0  0  0  0  0  0  0
   10.6270  -11.9560   23.3600 H   0  0  0  0  0  0  0  0  0  0  0  0
   11.5990   -9.5410   24.1460 C   0  0  0  0  0  0  0  0  0  0  0  0
   11.9390   -8.4850   24.0820 H   0  0  0  0  0  0  0  0  0  0  0  0
   10.4850   -9.5600   24.2540 H   0  0  0  0  0  0  0  0  0  0  0  0
   12.0350   -9.9950   25.0650 H   0  0  0  0  0  0  0  0  0  0  0  0
  1  2  1  0  0  0  0
  1 14  1  0  0  0  0
  1  3  1  0  0  0  0
  2  5  1  0  0  0  0
  2  7  1  0  0  0  0
  2 27  1  1  0  0  0
  3  8  1  0  0  0  0
  3  4  2  0  0  0  0
  5  6  2  0  0  0  0
  5  9  1  0  0  0  0
  7 10  1  0  0  0  0
  7 28  1  0  0  0  0
  7 29  1  0  0  0  0
  8 11  1  0  0  0  0
  8 12  1  0  0  0  0
  8 30  1  6  0  0  0
  9 13  1  0  0  0  0
  9 31  1  0  0  0  0
 10 14  1  0  0  0  0
 10 32  1  0  0  0  0
 10 33  1  0  0  0  0
 11 34  1  0  0  0  0
 11 35  1  0  0  0  0
 11 36  1  0  0  0  0
 12 15  1  0  0  0  0
 12 37  1  0  0  0  0
 12 38  1  0  0  0  0
 13 16  1  0  0  0  0
 13 39  1  0  0  0  0
 13 40  1  0  0  0  0
 14 41  1  0  0  0  0
 14 42  1  0  0  0  0
 15 17  2  0  0  0  0
 15 25  1  0  0  0  0
 16 18  2  0  0  0  0
 16 26  1  0  0  0  0
 17 19  1  0  0  0  0
 17 43  1  0  0  0  0
 18 20  1  0  0  0  0
 18 44  1  0  0  0  0
 19 21  2  0  0  0  0
 19 45  1  0  0  0  0
 20 22  2  0  0  0  0
 20 46  1  0  0  0  0
 21 23  1  0  0  0  0
 21 47  1  0  0  0  0
 22 24  1  0  0  0  0
 22 51  1  0  0  0  0
 23 25  2  0  0  0  0
 23 48  1  0  0  0  0
 24 26  2  0  0  0  0
 24 52  1  0  0  0  0
 25 49  1  0  0  0  0
 26 50  1  0  0  0  0
 52 53  1  0  0  0  0
 52 54  1  0  0  0  0
 52 55  1  0  0  0  0
M  CHG  1  11   1
M  END
$$$$
