CAT-13i
 OpenBabel02232411143D
Structure written by MMmdl.
 46 49  0  0  1  0  0  0  0  0999 V2000
   11.7740   -1.8460    1.1940 C   0  0  0  0  0  0  0  0  0  0  0  0
   13.0620   -2.2500    0.6020 N   0  0  0  0  0  0  0  0  0  0  0  0
   14.2410   -2.3690    1.3490 C   0  0  0  0  0  0  0  0  0  0  0  0
   14.3450   -2.3750    2.7050 N   0  0  0  0  0  0  0  0  0  0  0  0
   15.3220   -2.5770    0.4950 N   0  3  0  0  0  0  0  0  0  0  0  0
   14.8400   -2.8750   -0.9030 C   0  0  2  0  0  0  0  0  0  0  0  0
   15.0930   -4.3390   -1.2760 C   0  0  0  0  0  0  0  0  0  0  0  0
   14.6830   -5.4530   -0.3250 C   0  0  0  0  0  0  0  0  0  0  0  0
   13.7190   -5.4180    0.8550 C   0  0  0  0  0  0  0  0  0  0  0  0
   13.3220   -6.1390   -0.4090 C   0  0  0  0  0  0  0  0  0  0  0  0
   15.4130   -1.8240   -1.8500 C   0  0  0  0  0  0  0  0  0  0  0  0
   16.0880   -2.1580   -3.0290 C   0  0  0  0  0  0  0  0  0  0  0  0
   16.5430   -1.1390   -3.8760 C   0  0  0  0  0  0  0  0  0  0  0  0
   16.3320    0.2040   -3.5640 C   0  0  0  0  0  0  0  0  0  0  0  0
   15.6640    0.5540   -2.3780 C   0  0  0  0  0  0  0  0  0  0  0  0
   15.4150    1.9700   -2.0180 C   0  0  0  0  0  0  0  0  0  0  0  0
   14.9940    2.9010   -2.9820 C   0  0  0  0  0  0  0  0  0  0  0  0
   14.6780    4.2120   -2.6070 C   0  0  0  0  0  0  0  0  0  0  0  0
   14.7580    4.6110   -1.2700 C   0  0  0  0  0  0  0  0  0  0  0  0
   15.1930    3.6800   -0.3240 C   0  0  0  0  0  0  0  0  0  0  0  0
   15.2330    4.1130    1.3460 Cl  0  0  0  0  0  0  0  0  0  0  0  0
   15.5500    2.3800   -0.6810 C   0  0  0  0  0  0  0  0  0  0  0  0
   15.2080   -0.4700   -1.5340 C   0  0  0  0  0  0  0  0  0  0  0  0
   13.3040   -2.6020   -0.8040 C   0  0  0  0  0  0  0  0  0  0  0  0
   12.4390   -2.6130   -1.6200 O   0  0  0  0  0  0  0  0  0  0  0  0
   11.6390   -2.3230    2.2010 H   0  0  0  0  0  0  0  0  0  0  0  0
   11.7700   -0.7290    1.3010 H   0  0  0  0  0  0  0  0  0  0  0  0
   10.9340   -2.1710    0.5250 H   0  0  0  0  0  0  0  0  0  0  0  0
   13.6210   -1.9360    3.3220 H   0  0  0  0  0  0  0  0  0  0  0  0
   16.2140   -2.9850    0.8750 H   0  0  0  0  0  0  0  0  0  0  0  0
   16.2040   -4.4450   -1.4330 H   0  0  0  0  0  0  0  0  0  0  0  0
   14.5840   -4.5380   -2.2580 H   0  0  0  0  0  0  0  0  0  0  0  0
   15.5470   -6.1260   -0.1830 H   0  0  0  0  0  0  0  0  0  0  0  0
   13.9950   -6.0100    1.7400 H   0  0  0  0  0  0  0  0  0  0  0  0
   13.1610   -4.5330    1.1480 H   0  0  0  0  0  0  0  0  0  0  0  0
   12.5490   -5.6960   -1.0480 H   0  0  0  0  0  0  0  0  0  0  0  0
   13.2880   -7.2370   -0.4030 H   0  0  0  0  0  0  0  0  0  0  0  0
   16.2630   -3.1970   -3.3050 H   0  0  0  0  0  0  0  0  0  0  0  0
   17.0750   -1.3980   -4.7970 H   0  0  0  0  0  0  0  0  0  0  0  0
   16.6890    0.9790   -4.2500 H   0  0  0  0  0  0  0  0  0  0  0  0
   14.8930    2.6020   -4.0300 H   0  0  0  0  0  0  0  0  0  0  0  0
   14.3420    4.9250   -3.3700 H   0  0  0  0  0  0  0  0  0  0  0  0
   14.4640    5.6210   -0.9740 H   0  0  0  0  0  0  0  0  0  0  0  0
   15.9120    1.6760    0.0690 H   0  0  0  0  0  0  0  0  0  0  0  0
   14.6820   -0.2140   -0.6160 H   0  0  0  0  0  0  0  0  0  0  0  0
   15.3050   -2.3890    3.1420 H   0  0  0  0  0  0  0  0  0  0  0  0
  1  2  1  0  0  0  0
  1 26  1  0  0  0  0
  1 27  1  0  0  0  0
  1 28  1  0  0  0  0
  2  3  1  0  0  0  0
  2 24  1  0  0  0  0
  3  4  1  0  0  0  0
  3  5  2  0  0  0  0
  4 29  1  0  0  0  0
  4 46  1  0  0  0  0
  5  6  1  0  0  0  0
  5 30  1  0  0  0  0
  6  7  1  6  0  0  0
  6 11  1  0  0  0  0
  6 24  1  0  0  0  0
  7  8  1  0  0  0  0
  7 31  1  0  0  0  0
  7 32  1  0  0  0  0
  8  9  1  0  0  0  0
  8 10  1  0  0  0  0
  8 33  1  0  0  0  0
  9 10  1  0  0  0  0
  9 34  1  0  0  0  0
  9 35  1  0  0  0  0
 10 36  1  0  0  0  0
 10 37  1  0  0  0  0
 11 12  2  0  0  0  0
 11 23  1  0  0  0  0
 12 13  1  0  0  0  0
 12 38  1  0  0  0  0
 13 14  2  0  0  0  0
 13 39  1  0  0  0  0
 14 15  1  0  0  0  0
 14 40  1  0  0  0  0
 15 16  1  0  0  0  0
 15 23  2  0  0  0  0
 16 17  2  0  0  0  0
 16 22  1  0  0  0  0
 17 18  1  0  0  0  0
 17 41  1  0  0  0  0
 18 19  2  0  0  0  0
 18 42  1  0  0  0  0
 19 20  1  0  0  0  0
 19 43  1  0  0  0  0
 20 21  1  0  0  0  0
 20 22  2  0  0  0  0
 22 44  1  0  0  0  0
 23 45  1  0  0  0  0
 24 25  2  0  0  0  0
M  CHG  1   5   1
M  END
$$$$
