p38a_2u
 OpenBabel02232411163D
Structure written by MMmdl.
 64 68  0  0  0  0  0  0  0  0999 V2000
   38.2950   36.5330   17.1740 C   0  0  0  0  0  0  0  0  0  0  0  0
   34.5600   35.0690   21.2450 C   0  0  0  0  0  0  0  0  0  0  0  0
   37.5120   36.0760   18.2310 C   0  0  0  0  0  0  0  0  0  0  0  0
   34.0130   39.1470   23.7950 C   0  0  0  0  0  0  0  0  0  0  0  0
   34.6570   37.9310   21.4100 C   0  0  0  0  0  0  0  0  0  0  0  0
   35.0530   37.2880   20.1880 C   0  0  0  0  0  0  0  0  0  0  0  0
   37.6480   36.6820   15.9390 C   0  0  0  0  0  0  0  0  0  0  0  0
   36.3010   36.3720   15.7310 C   0  0  0  0  0  0  0  0  0  0  0  0
   35.5400   35.9040   16.8080 C   0  0  0  0  0  0  0  0  0  0  0  0
   34.2900   37.1570   22.5550 C   0  0  0  0  0  0  0  0  0  0  0  0
   34.6290   39.3460   21.5450 C   0  0  0  0  0  0  0  0  0  0  0  0
   35.0480   35.9360   20.1410 C   0  0  0  0  0  0  0  0  0  0  0  0
   36.1510   35.7500   18.0550 C   0  0  0  0  0  0  0  0  0  0  0  0
   38.0430   35.9490   19.4400 F   0  0  0  0  0  0  0  0  0  0  0  0
   35.4330   35.1190   19.0800 O   0  0  0  0  0  0  0  0  0  0  0  0
   34.3230   39.9690   22.6920 N   0  0  0  0  0  0  0  0  0  0  0  0
   34.4320   33.8650   21.1670 O   0  0  0  0  0  0  0  0  0  0  0  0
   34.2260   35.7510   22.4730 N   0  0  0  0  0  0  0  0  0  0  0  0
   34.0020   37.7660   23.7470 N   0  0  0  0  0  0  0  0  0  0  0  0
   33.6440   39.7670   24.9650 N   0  0  0  0  0  0  0  0  0  0  0  0
   39.3470   36.8000   17.3090 H   0  0  0  0  0  0  0  0  0  0  0  0
   35.3560   37.9140   19.3470 H   0  0  0  0  0  0  0  0  0  0  0  0
   35.8310   36.5070   14.7550 H   0  0  0  0  0  0  0  0  0  0  0  0
   34.4770   35.6810   16.6690 H   0  0  0  0  0  0  0  0  0  0  0  0
   34.8630   39.9820   20.6760 H   0  0  0  0  0  0  0  0  0  0  0  0
   33.7480   40.7960   25.0540 H   0  0  0  0  0  0  0  0  0  0  0  0
   38.3430   37.1840   14.9220 F   0  0  0  0  0  0  0  0  0  0  0  0
   32.3550   39.0620   28.4910 C   0  0  0  0  0  0  0  0  0  0  0  0
   32.4400   39.7380   27.1160 C   0  0  0  0  0  0  0  0  0  0  0  0
   33.4940   39.0170   26.2500 C   0  0  0  0  0  0  0  0  0  0  0  0
   34.8480   38.9500   26.9910 C   0  0  0  0  0  0  0  0  0  0  0  0
   34.6460   38.3110   28.3700 C   0  0  0  0  0  0  0  0  0  0  0  0
   33.6440   39.0120   29.1420 O   0  0  0  0  0  0  0  0  0  0  0  0
   31.9490   38.0280   28.3920 H   0  0  0  0  0  0  0  0  0  0  0  0
   31.7510   39.6720   29.2010 H   0  0  0  0  0  0  0  0  0  0  0  0
   32.7150   40.8120   27.2390 H   0  0  0  0  0  0  0  0  0  0  0  0
   31.4460   39.6850   26.6100 H   0  0  0  0  0  0  0  0  0  0  0  0
   33.1310   37.9750   26.0230 H   0  0  0  0  0  0  0  0  0  0  0  0
   35.5660   38.3330   26.4010 H   0  0  0  0  0  0  0  0  0  0  0  0
   35.2680   39.9780   27.1000 H   0  0  0  0  0  0  0  0  0  0  0  0
   34.3430   37.2430   28.2640 H   0  0  0  0  0  0  0  0  0  0  0  0
   35.5540   38.4240   29.0040 H   0  0  0  0  0  0  0  0  0  0  0  0
   31.7040   34.2230   24.9850 C   0  0  0  0  0  0  0  0  0  0  0  0
   32.2430   35.2300   23.9450 C   0  0  0  0  0  0  0  0  0  0  0  0
   33.7040   34.8960   23.6070 C   0  0  0  0  0  0  0  0  0  0  0  0
   34.5530   34.9880   24.8850 C   0  0  0  0  0  0  0  0  0  0  0  0
   34.0280   33.9590   25.9110 C   0  0  0  0  0  0  0  0  0  0  0  0
   31.5910   33.2170   24.5010 H   0  0  0  0  0  0  0  0  0  0  0  0
   30.6900   34.6030   25.2900 H   0  0  0  0  0  0  0  0  0  0  0  0
   32.1630   36.2580   24.3830 H   0  0  0  0  0  0  0  0  0  0  0  0
   31.5930   35.1820   23.0420 H   0  0  0  0  0  0  0  0  0  0  0  0
   33.7440   33.8290   23.2310 H   0  0  0  0  0  0  0  0  0  0  0  0
   35.6230   34.7720   24.6700 H   0  0  0  0  0  0  0  0  0  0  0  0
   34.4750   36.0110   25.3330 H   0  0  0  0  0  0  0  0  0  0  0  0
   34.2210   32.9240   25.5220 H   0  0  0  0  0  0  0  0  0  0  0  0
   34.5900   34.1240   26.8700 H   0  0  0  0  0  0  0  0  0  0  0  0
   32.5700   34.1540   26.2010 N   0  0  0  0  0  0  0  0  0  0  0  0
   31.9530   33.3070   27.5760 S   0  0  0  0  0  0  0  0  0  0  0  0
   32.3520   34.0500   28.7840 O   0  0  0  0  0  0  0  0  0  0  0  0
   32.4950   31.9320   27.5880 O   0  0  0  0  0  0  0  0  0  0  0  0
   30.2260   33.2520   27.4380 C   0  0  0  0  0  0  0  0  0  0  0  0
   29.7530   34.2730   27.4110 H   0  0  0  0  0  0  0  0  0  0  0  0
   29.8710   32.7000   26.5300 H   0  0  0  0  0  0  0  0  0  0  0  0
   29.7630   32.7290   28.3180 H   0  0  0  0  0  0  0  0  0  0  0  0
  1  3  2  0  0  0  0
  1  7  1  0  0  0  0
  1 21  1  0  0  0  0
  2 12  1  0  0  0  0
  2 17  2  0  0  0  0
  2 18  1  0  0  0  0
  3 13  1  0  0  0  0
  3 14  1  0  0  0  0
  4 16  2  0  0  0  0
  4 19  1  0  0  0  0
  4 20  1  0  0  0  0
  5  6  1  0  0  0  0
  5 10  1  0  0  0  0
  5 11  2  0  0  0  0
  6 12  2  0  0  0  0
  6 22  1  0  0  0  0
  7  8  2  0  0  0  0
  7 27  1  0  0  0  0
  8  9  1  0  0  0  0
  8 23  1  0  0  0  0
  9 13  2  0  0  0  0
  9 24  1  0  0  0  0
 10 18  1  0  0  0  0
 10 19  2  0  0  0  0
 11 16  1  0  0  0  0
 11 25  1  0  0  0  0
 12 15  1  0  0  0  0
 13 15  1  0  0  0  0
 18 45  1  0  0  0  0
 20 26  1  0  0  0  0
 20 30  1  0  0  0  0
 28 29  1  0  0  0  0
 28 33  1  0  0  0  0
 28 34  1  0  0  0  0
 28 35  1  0  0  0  0
 29 30  1  0  0  0  0
 29 36  1  0  0  0  0
 29 37  1  0  0  0  0
 30 31  1  0  0  0  0
 30 38  1  0  0  0  0
 31 32  1  0  0  0  0
 31 39  1  0  0  0  0
 31 40  1  0  0  0  0
 32 33  1  0  0  0  0
 32 41  1  0  0  0  0
 32 42  1  0  0  0  0
 43 44  1  0  0  0  0
 43 48  1  0  0  0  0
 43 49  1  0  0  0  0
 43 57  1  0  0  0  0
 44 45  1  0  0  0  0
 44 50  1  0  0  0  0
 44 51  1  0  0  0  0
 45 46  1  0  0  0  0
 45 52  1  0  0  0  0
 46 47  1  0  0  0  0
 46 53  1  0  0  0  0
 46 54  1  0  0  0  0
 47 55  1  0  0  0  0
 47 56  1  0  0  0  0
 47 57  1  0  0  0  0
 57 58  1  0  0  0  0
 58 59  2  0  0  0  0
 58 60  2  0  0  0  0
 58 61  1  0  0  0  0
 61 62  1  0  0  0  0
 61 63  1  0  0  0  0
 61 64  1  0  0  0  0
M  END
$$$$
