1a
 OpenBabel02232411173D

 52 54  0  0  1  0  0  0  0  0999 V2000
   18.0790  -13.0740   21.5110 N   0  0  0  0  0  0  0  0  0  0  0  0
   17.8460  -11.7220   20.9150 C   0  0  2  0  0  0  0  0  0  0  0  0
   17.1850  -13.6240   22.3900 C   0  0  0  0  0  0  0  0  0  0  0  0
   16.1840  -13.0080   22.7500 O   0  0  0  0  0  0  0  0  0  0  0  0
   16.4180  -11.6150   20.3130 C   0  0  0  0  0  0  0  0  0  0  0  0
   15.9020  -12.4970   19.6410 O   0  0  0  0  0  0  0  0  0  0  0  0
   18.9250  -11.5640   19.8270 C   0  0  0  0  0  0  0  0  0  0  0  0
   17.4650  -15.0520   22.9340 C   0  0  2  0  0  0  0  0  0  0  0  0
   15.8100  -10.3920   20.5360 N   0  0  0  0  0  0  0  0  0  0  0  0
   19.9750  -12.6630   20.0670 C   0  0  0  0  0  0  0  0  0  0  0  0
   16.1440  -15.8420   22.8680 N   0  3  0  0  0  0  0  0  0  0  0  0
   17.9540  -15.0210   24.3950 C   0  0  0  0  0  0  0  0  0  0  0  0
   14.4120  -10.0900   20.1470 C   0  0  0  0  0  0  0  0  0  0  0  0
   19.3110  -13.7240   20.9650 C   0  0  0  0  0  0  0  0  0  0  0  0
   19.4010  -14.6090   24.5210 C   0  0  0  0  0  0  0  0  0  0  0  0
   13.4110  -10.4700   21.2130 C   0  0  0  0  0  0  0  0  0  0  0  0
   20.4170  -15.4100   23.9740 C   0  0  0  0  0  0  0  0  0  0  0  0
   12.7100  -11.6810   21.1260 C   0  0  0  0  0  0  0  0  0  0  0  0
   21.7560  -15.0510   24.1370 C   0  0  0  0  0  0  0  0  0  0  0  0
   11.7320  -11.9980   22.0740 C   0  0  0  0  0  0  0  0  0  0  0  0
   22.0980  -13.8860   24.8350 C   0  0  0  0  0  0  0  0  0  0  0  0
   11.4210  -11.1070   23.1040 C   0  0  0  0  0  0  0  0  0  0  0  0
   21.0890  -13.0880   25.3810 C   0  0  0  0  0  0  0  0  0  0  0  0
   12.1580   -9.9230   23.1840 C   0  0  0  0  0  0  0  0  0  0  0  0
   19.7480  -13.4590   25.2390 C   0  0  0  0  0  0  0  0  0  0  0  0
   13.1560   -9.5820   22.2680 C   0  0  0  0  0  0  0  0  0  0  0  0
   17.9990  -10.9530   21.7220 H   0  0  0  0  0  0  0  0  0  0  0  0
   18.4880  -11.6750   18.8070 H   0  0  0  0  0  0  0  0  0  0  0  0
   19.3880  -10.5600   19.9230 H   0  0  0  0  0  0  0  0  0  0  0  0
   18.2010  -15.6290   22.3010 H   0  0  0  0  0  0  0  0  0  0  0  0
   16.2760   -9.6920   21.1400 H   0  0  0  0  0  0  0  0  0  0  0  0
   20.2980  -13.1260   19.1040 H   0  0  0  0  0  0  0  0  0  0  0  0
   20.8740  -12.2420   20.5750 H   0  0  0  0  0  0  0  0  0  0  0  0
   16.2980  -16.8140   23.2710 H   0  0  0  0  0  0  0  0  0  0  0  0
   15.3820  -15.3360   23.4260 H   0  0  0  0  0  0  0  0  0  0  0  0
   15.8330  -15.9570   21.8630 H   0  0  0  0  0  0  0  0  0  0  0  0
   17.2970  -14.3440   24.9980 H   0  0  0  0  0  0  0  0  0  0  0  0
   17.8680  -16.0590   24.8270 H   0  0  0  0  0  0  0  0  0  0  0  0
   14.3630   -8.9800   19.9620 H   0  0  0  0  0  0  0  0  0  0  0  0
   14.1790  -10.6180   19.1800 H   0  0  0  0  0  0  0  0  0  0  0  0
   19.9890  -14.0180   21.8060 H   0  0  0  0  0  0  0  0  0  0  0  0
   19.0320  -14.6280   20.3660 H   0  0  0  0  0  0  0  0  0  0  0  0
   20.1600  -16.3230   23.4310 H   0  0  0  0  0  0  0  0  0  0  0  0
   12.9180  -12.3860   20.3180 H   0  0  0  0  0  0  0  0  0  0  0  0
   22.5320  -15.6960   23.7140 H   0  0  0  0  0  0  0  0  0  0  0  0
   11.2030  -12.9530   22.0080 H   0  0  0  0  0  0  0  0  0  0  0  0
   23.1500  -13.6140   24.9560 H   0  0  0  0  0  0  0  0  0  0  0  0
   21.3260  -12.1720   25.9270 H   0  0  0  0  0  0  0  0  0  0  0  0
   11.9070   -9.0780   24.1850 F   0  0  0  0  0  0  0  0  0  0  0  0
   18.9720  -12.8610   25.7100 H   0  0  0  0  0  0  0  0  0  0  0  0
   13.7220   -8.6560   22.3620 H   0  0  0  0  0  0  0  0  0  0  0  0
   10.6210  -11.3500   23.8100 H   0  0  0  0  0  0  0  0  0  0  0  0
  1  2  1  0  0  0  0
  1 14  1  0  0  0  0
  1  3  1  0  0  0  0
  2  5  1  0  0  0  0
  2  7  1  0  0  0  0
  2 27  1  1  0  0  0
  3  8  1  0  0  0  0
  3  4  2  0  0  0  0
  5  6  2  0  0  0  0
  5  9  1  0  0  0  0
  7 10  1  0  0  0  0
  7 28  1  0  0  0  0
  7 29  1  0  0  0  0
  8 11  1  0  0  0  0
  8 12  1  0  0  0  0
  8 30  1  6  0  0  0
  9 13  1  0  0  0  0
  9 31  1  0  0  0  0
 10 14  1  0  0  0  0
 10 32  1  0  0  0  0
 10 33  1  0  0  0  0
 11 34  1  0  0  0  0
 11 35  1  0  0  0  0
 11 36  1  0  0  0  0
 12 15  1  0  0  0  0
 12 37  1  0  0  0  0
 12 38  1  0  0  0  0
 13 16  1  0  0  0  0
 13 39  1  0  0  0  0
 13 40  1  0  0  0  0
 14 41  1  0  0  0  0
 14 42  1  0  0  0  0
 15 17  2  0  0  0  0
 15 25  1  0  0  0  0
 16 18  2  0  0  0  0
 16 26  1  0  0  0  0
 17 19  1  0  0  0  0
 17 43  1  0  0  0  0
 18 20  1  0  0  0  0
 18 44  1  0  0  0  0
 19 21  2  0  0  0  0
 19 45  1  0  0  0  0
 20 22  2  0  0  0  0
 20 46  1  0  0  0  0
 21 23  1  0  0  0  0
 21 47  1  0  0  0  0
 22 24  1  0  0  0  0
 22 52  1  0  0  0  0
 23 25  2  0  0  0  0
 23 48  1  0  0  0  0
 24 26  2  0  0  0  0
 24 49  1  0  0  0  0
 25 50  1  0  0  0  0
 26 51  1  0  0  0  0
M  CHG  1  11   1
M  END
$$$$
