p38a_2e
 OpenBabel02232411163D
Structure written by MMmdl.
 46 49  0  0  0  0  0  0  0  0999 V2000
   32.3750   39.7530   27.0510 C   0  0  0  0  0  0  0  0  0  0  0  0
   32.2980   39.0950   28.4340 C   0  0  0  0  0  0  0  0  0  0  0  0
   34.6290   38.4650   28.3690 C   0  0  0  0  0  0  0  0  0  0  0  0
   34.8190   39.0830   26.9790 C   0  0  0  0  0  0  0  0  0  0  0  0
   36.3110   36.3150   15.7280 C   0  0  0  0  0  0  0  0  0  0  0  0
   33.5760   39.1260   29.1090 O   0  0  0  0  0  0  0  0  0  0  0  0
   34.5430   35.0820   21.2440 C   0  0  0  0  0  0  0  0  0  0  0  0
   35.5450   35.8500   16.7990 C   0  0  0  0  0  0  0  0  0  0  0  0
   33.9940   39.1810   23.7550 C   0  0  0  0  0  0  0  0  0  0  0  0
   33.4770   39.0710   26.2120 C   0  0  0  0  0  0  0  0  0  0  0  0
   34.6630   37.9600   21.3740 C   0  0  0  0  0  0  0  0  0  0  0  0
   35.0610   37.2900   20.1660 C   0  0  0  0  0  0  0  0  0  0  0  0
   37.6530   36.6320   15.9590 C   0  0  0  0  0  0  0  0  0  0  0  0
   38.2760   36.4860   17.2040 C   0  0  0  0  0  0  0  0  0  0  0  0
   37.5060   36.0340   18.2780 C   0  0  0  0  0  0  0  0  0  0  0  0
   34.2990   37.1980   22.5240 C   0  0  0  0  0  0  0  0  0  0  0  0
   34.6250   39.3740   21.5040 C   0  0  0  0  0  0  0  0  0  0  0  0
   35.0320   35.9370   20.1280 C   0  0  0  0  0  0  0  0  0  0  0  0
   36.1590   35.7200   18.0510 C   0  0  0  0  0  0  0  0  0  0  0  0
   33.8720   35.0300   23.6790 C   0  0  0  0  0  0  0  0  0  0  0  0
   34.4850   35.6210   16.6590 H   0  0  0  0  0  0  0  0  0  0  0  0
   38.3590   37.1440   14.9500 F   0  0  0  0  0  0  0  0  0  0  0  0
   35.3880   35.1150   19.0660 O   0  0  0  0  0  0  0  0  0  0  0  0
   34.3050   39.9970   22.6490 N   0  0  0  0  0  0  0  0  0  0  0  0
   34.3820   33.8810   21.1940 O   0  0  0  0  0  0  0  0  0  0  0  0
   34.2480   35.7950   22.4570 N   0  0  0  0  0  0  0  0  0  0  0  0
   33.9850   37.8000   23.7160 N   0  0  0  0  0  0  0  0  0  0  0  0
   33.6090   39.8090   24.9190 N   0  0  0  0  0  0  0  0  0  0  0  0
   31.3930   39.6530   26.5300 H   0  0  0  0  0  0  0  0  0  0  0  0
   32.6040   40.8390   27.1660 H   0  0  0  0  0  0  0  0  0  0  0  0
   31.6510   39.6810   29.1260 H   0  0  0  0  0  0  0  0  0  0  0  0
   31.9550   38.0370   28.3530 H   0  0  0  0  0  0  0  0  0  0  0  0
   34.3890   37.3790   28.2920 H   0  0  0  0  0  0  0  0  0  0  0  0
   35.5200   38.6430   29.0150 H   0  0  0  0  0  0  0  0  0  0  0  0
   35.1880   40.1320   27.0750 H   0  0  0  0  0  0  0  0  0  0  0  0
   35.5810   38.4920   26.4170 H   0  0  0  0  0  0  0  0  0  0  0  0
   35.8540   36.4470   14.7460 H   0  0  0  0  0  0  0  0  0  0  0  0
   33.1740   38.0060   26.0010 H   0  0  0  0  0  0  0  0  0  0  0  0
   35.3870   37.9000   19.3210 H   0  0  0  0  0  0  0  0  0  0  0  0
   39.3260   36.7530   17.3470 H   0  0  0  0  0  0  0  0  0  0  0  0
   37.9430   35.9640   19.2750 H   0  0  0  0  0  0  0  0  0  0  0  0
   34.8620   40.0110   20.6350 H   0  0  0  0  0  0  0  0  0  0  0  0
   34.5940   35.2580   24.5090 H   0  0  0  0  0  0  0  0  0  0  0  0
   32.8410   35.3250   24.0170 H   0  0  0  0  0  0  0  0  0  0  0  0
   33.8880   33.9300   23.4690 H   0  0  0  0  0  0  0  0  0  0  0  0
   33.7270   40.8370   25.0080 H   0  0  0  0  0  0  0  0  0  0  0  0
  1  2  1  0  0  0  0
  1 10  1  0  0  0  0
  1 29  1  0  0  0  0
  1 30  1  0  0  0  0
  2  6  1  0  0  0  0
  2 31  1  0  0  0  0
  2 32  1  0  0  0  0
  3  4  1  0  0  0  0
  3  6  1  0  0  0  0
  3 33  1  0  0  0  0
  3 34  1  0  0  0  0
  4 10  1  0  0  0  0
  4 35  1  0  0  0  0
  4 36  1  0  0  0  0
  5  8  2  0  0  0  0
  5 13  1  0  0  0  0
  5 37  1  0  0  0  0
  7 18  1  0  0  0  0
  7 25  2  0  0  0  0
  7 26  1  0  0  0  0
  8 19  1  0  0  0  0
  8 21  1  0  0  0  0
  9 24  2  0  0  0  0
  9 27  1  0  0  0  0
  9 28  1  0  0  0  0
 10 28  1  0  0  0  0
 10 38  1  0  0  0  0
 11 12  1  0  0  0  0
 11 16  1  0  0  0  0
 11 17  2  0  0  0  0
 12 18  2  0  0  0  0
 12 39  1  0  0  0  0
 13 14  2  0  0  0  0
 13 22  1  0  0  0  0
 14 15  1  0  0  0  0
 14 40  1  0  0  0  0
 15 19  2  0  0  0  0
 15 41  1  0  0  0  0
 16 26  1  0  0  0  0
 16 27  2  0  0  0  0
 17 24  1  0  0  0  0
 17 42  1  0  0  0  0
 18 23  1  0  0  0  0
 19 23  1  0  0  0  0
 20 26  1  0  0  0  0
 20 43  1  0  0  0  0
 20 44  1  0  0  0  0
 20 45  1  0  0  0  0
 28 46  1  0  0  0  0
M  END
$$$$
