ejm_50
 OpenBabel02232411173D
Structure written by MMmdl.
 33 34  0  0  0  0  0  0  0  0999 V2000
   -1.5490   21.5170  -27.5700 C   0  0  0  0  0  0  0  0  0  0  0  0
   -2.8250   21.0040  -27.8240 C   0  0  0  0  0  0  0  0  0  0  0  0
   -3.6020   21.5650  -28.8380 C   0  0  0  0  0  0  0  0  0  0  0  0
   -3.1360   22.6380  -29.6150 C   0  0  0  0  0  0  0  0  0  0  0  0
   -1.8620   23.1420  -29.3240 C   0  0  0  0  0  0  0  0  0  0  0  0
   -1.0640   22.5920  -28.3180 C   0  0  0  0  0  0  0  0  0  0  0  0
   -1.2360   24.4750  -30.2000 Cl  0  0  0  0  0  0  0  0  0  0  0  0
   -3.9940   23.1360  -30.7400 C   0  0  0  0  0  0  0  0  0  0  0  0
   -4.3920   22.4080  -31.6240 O   0  0  0  0  0  0  0  0  0  0  0  0
   -4.3150   24.5070  -30.6480 N   0  0  0  0  0  0  0  0  0  0  0  0
   -5.1660   25.2360  -31.5240 C   0  0  0  0  0  0  0  0  0  0  0  0
   -5.8240   24.6600  -32.6220 C   0  0  0  0  0  0  0  0  0  0  0  0
   -6.6820   25.4640  -33.3850 C   0  0  0  0  0  0  0  0  0  0  0  0
   -6.8970   26.7790  -33.1280 N   0  0  0  0  0  0  0  0  0  0  0  0
   -6.2310   27.3350  -32.0550 C   0  0  0  0  0  0  0  0  0  0  0  0
   -5.3610   26.6050  -31.2340 C   0  0  0  0  0  0  0  0  0  0  0  0
   -6.5330   28.7100  -31.8360 N   0  0  0  0  0  0  0  0  0  0  0  0
   -5.7890   29.6240  -31.0520 C   0  0  0  0  0  0  0  0  0  0  0  0
   -4.7990   29.2970  -30.4370 O   0  0  0  0  0  0  0  0  0  0  0  0
   -6.3620   31.0520  -31.0380 C   0  0  0  0  0  0  0  0  0  0  0  0
   -5.1600   20.9240  -29.1490 Cl  0  0  0  0  0  0  0  0  0  0  0  0
   -7.2750   31.1780  -31.6660 H   0  0  0  0  0  0  0  0  0  0  0  0
   -0.9280   21.0770  -26.7810 H   0  0  0  0  0  0  0  0  0  0  0  0
   -3.1970   20.1760  -27.2180 H   0  0  0  0  0  0  0  0  0  0  0  0
   -0.0700   22.9960  -28.1010 H   0  0  0  0  0  0  0  0  0  0  0  0
   -3.9170   25.0410  -29.8540 H   0  0  0  0  0  0  0  0  0  0  0  0
   -5.7010   23.6050  -32.8820 H   0  0  0  0  0  0  0  0  0  0  0  0
   -7.2320   25.0400  -34.2420 H   0  0  0  0  0  0  0  0  0  0  0  0
   -4.8480   27.0800  -30.3940 H   0  0  0  0  0  0  0  0  0  0  0  0
   -7.4160   29.0460  -32.2880 H   0  0  0  0  0  0  0  0  0  0  0  0
   -6.5720   31.3700  -29.9850 H   0  0  0  0  0  0  0  0  0  0  0  0
   -5.6000   32.3050  -32.3750 H   0  0  0  0  0  0  0  0  0  0  0  0
   -5.3060   31.9100  -31.4870 O   0  0  0  0  0  0  0  0  0  0  0  0
  1  2  2  0  0  0  0
  1  6  1  0  0  0  0
  1 23  1  0  0  0  0
  2  3  1  0  0  0  0
  2 24  1  0  0  0  0
  3  4  2  0  0  0  0
  3 21  1  0  0  0  0
  4  5  1  0  0  0  0
  4  8  1  0  0  0  0
  5  6  2  0  0  0  0
  5  7  1  0  0  0  0
  6 25  1  0  0  0  0
  8  9  2  0  0  0  0
  8 10  1  0  0  0  0
 10 11  1  0  0  0  0
 10 26  1  0  0  0  0
 11 12  2  0  0  0  0
 11 16  1  0  0  0  0
 12 13  1  0  0  0  0
 12 27  1  0  0  0  0
 13 14  2  0  0  0  0
 13 28  1  0  0  0  0
 14 15  1  0  0  0  0
 15 16  2  0  0  0  0
 15 17  1  0  0  0  0
 16 29  1  0  0  0  0
 17 18  1  0  0  0  0
 17 30  1  0  0  0  0
 18 19  2  0  0  0  0
 18 20  1  0  0  0  0
 20 22  1  0  0  0  0
 20 31  1  0  0  0  0
 20 33  1  0  0  0  0
 32 33  1  0  0  0  0
M  END
$$$$
