CAT-13a
 OpenBabel02232411143D
Structure written by MMmdl.
 39 41  0  0  1  0  0  0  0  0999 V2000
   11.7630   -2.2820    1.1260 C   0  0  0  0  0  0  0  0  0  0  0  0
   13.1110   -2.4560    0.5450 N   0  0  0  0  0  0  0  0  0  0  0  0
   14.2790   -2.4070    1.3040 C   0  0  0  0  0  0  0  0  0  0  0  0
   14.3660   -2.4330    2.6620 N   0  0  0  0  0  0  0  0  0  0  0  0
   15.3950   -2.3970    0.4620 N   0  3  0  0  0  0  0  0  0  0  0  0
   14.9900   -2.7330   -0.9590 C   0  0  2  0  0  0  0  0  0  0  0  0
   15.3270   -4.1880   -1.2470 C   0  0  0  0  0  0  0  0  0  0  0  0
   15.5300   -1.6920   -1.9190 C   0  0  0  0  0  0  0  0  0  0  0  0
   16.2230   -2.0570   -3.0800 C   0  0  0  0  0  0  0  0  0  0  0  0
   16.6390   -1.0670   -3.9760 C   0  0  0  0  0  0  0  0  0  0  0  0
   16.3730    0.2800   -3.7260 C   0  0  0  0  0  0  0  0  0  0  0  0
   15.6990    0.6600   -2.5520 C   0  0  0  0  0  0  0  0  0  0  0  0
   15.4240    2.0840   -2.2580 C   0  0  0  0  0  0  0  0  0  0  0  0
   15.6060    2.5820   -0.9570 C   0  0  0  0  0  0  0  0  0  0  0  0
   15.2870    3.9080   -0.6510 C   0  0  0  0  0  0  0  0  0  0  0  0
   14.7990    4.7620   -1.6440 C   0  0  0  0  0  0  0  0  0  0  0  0
   14.6680    4.2680   -2.9460 C   0  0  0  0  0  0  0  0  0  0  0  0
   14.1200    5.3250   -4.1850 Cl  0  0  0  0  0  0  0  0  0  0  0  0
   14.9620    2.9420   -3.2700 C   0  0  0  0  0  0  0  0  0  0  0  0
   15.2770   -0.3360   -1.6580 C   0  0  0  0  0  0  0  0  0  0  0  0
   13.4300   -2.6010   -0.8910 C   0  0  0  0  0  0  0  0  0  0  0  0
   12.5850   -2.6030   -1.7270 O   0  0  0  0  0  0  0  0  0  0  0  0
   11.5160   -1.1890    1.1790 H   0  0  0  0  0  0  0  0  0  0  0  0
   11.0120   -2.8120    0.4800 H   0  0  0  0  0  0  0  0  0  0  0  0
   11.7200   -2.7280    2.1570 H   0  0  0  0  0  0  0  0  0  0  0  0
   15.3220   -2.3770    3.1110 H   0  0  0  0  0  0  0  0  0  0  0  0
   16.3140   -2.7460    0.8420 H   0  0  0  0  0  0  0  0  0  0  0  0
   16.4380   -4.3350   -1.2540 H   0  0  0  0  0  0  0  0  0  0  0  0
   14.8990   -4.8670   -0.4700 H   0  0  0  0  0  0  0  0  0  0  0  0
   14.9140   -4.4950   -2.2400 H   0  0  0  0  0  0  0  0  0  0  0  0
   16.4420   -3.1030   -3.2980 H   0  0  0  0  0  0  0  0  0  0  0  0
   17.1830   -1.3510   -4.8830 H   0  0  0  0  0  0  0  0  0  0  0  0
   16.6960    1.0340   -4.4510 H   0  0  0  0  0  0  0  0  0  0  0  0
   15.9870    1.9250   -0.1730 H   0  0  0  0  0  0  0  0  0  0  0  0
   15.4110    4.2670    0.3750 H   0  0  0  0  0  0  0  0  0  0  0  0
   14.5100    5.7860   -1.3980 H   0  0  0  0  0  0  0  0  0  0  0  0
   14.8230    2.5720   -4.2910 H   0  0  0  0  0  0  0  0  0  0  0  0
   14.7490   -0.0610   -0.7460 H   0  0  0  0  0  0  0  0  0  0  0  0
   13.6070   -2.0560    3.2800 H   0  0  0  0  0  0  0  0  0  0  0  0
  1  2  1  0  0  0  0
  1 23  1  0  0  0  0
  1 24  1  0  0  0  0
  1 25  1  0  0  0  0
  2  3  1  0  0  0  0
  2 21  1  0  0  0  0
  3  4  1  0  0  0  0
  3  5  2  0  0  0  0
  4 26  1  0  0  0  0
  4 39  1  0  0  0  0
  5  6  1  0  0  0  0
  5 27  1  0  0  0  0
  6  7  1  6  0  0  0
  6  8  1  0  0  0  0
  6 21  1  0  0  0  0
  7 28  1  0  0  0  0
  7 29  1  0  0  0  0
  7 30  1  0  0  0  0
  8  9  2  0  0  0  0
  8 20  1  0  0  0  0
  9 10  1  0  0  0  0
  9 31  1  0  0  0  0
 10 11  2  0  0  0  0
 10 32  1  0  0  0  0
 11 12  1  0  0  0  0
 11 33  1  0  0  0  0
 12 13  1  0  0  0  0
 12 20  2  0  0  0  0
 13 14  2  0  0  0  0
 13 19  1  0  0  0  0
 14 15  1  0  0  0  0
 14 34  1  0  0  0  0
 15 16  2  0  0  0  0
 15 35  1  0  0  0  0
 16 17  1  0  0  0  0
 16 36  1  0  0  0  0
 17 18  1  0  0  0  0
 17 19  2  0  0  0  0
 19 37  1  0  0  0  0
 20 38  1  0  0  0  0
 21 22  2  0  0  0  0
M  CHG  1   5   1
M  END
$$$$
