23468
 OpenBabel02232411173D
Structure written by MMmdl.
 37 38  0  0  0  0  0  0  0  0999 V2000
   36.3230    6.8600   15.0760 C   0  0  0  0  0  0  0  0  0  0  0  0
   37.1660    8.1040   14.8140 C   0  0  0  0  0  0  0  0  0  0  0  0
   38.3570    8.2150   15.7560 C   0  0  0  0  0  0  0  0  0  0  0  0
   38.6700    7.3740   16.5850 O   0  0  0  0  0  0  0  0  0  0  0  0
   39.0810    9.4060   15.6010 N   0  0  0  0  0  0  0  0  0  0  0  0
   40.3700    9.7390   16.1510 C   0  0  0  0  0  0  0  0  0  0  0  0
   41.2480    8.8030   16.7100 C   0  0  0  0  0  0  0  0  0  0  0  0
   42.5180    9.2410   17.1100 C   0  0  0  0  0  0  0  0  0  0  0  0
   42.9440   10.5490   16.8920 C   0  0  0  0  0  0  0  0  0  0  0  0
   42.0640   11.4910   16.3160 C   0  0  0  0  0  0  0  0  0  0  0  0
   42.4850   12.8300   15.9560 C   0  0  0  0  0  0  0  0  0  0  0  0
   43.6670   13.7230   16.8760 S   0  0  0  0  0  0  0  0  0  0  0  0
   43.5910   15.1390   15.8570 C   0  0  0  0  0  0  0  0  0  0  0  0
   44.4100   16.3820   16.2120 C   0  0  0  0  0  0  0  0  0  0  0  0
   44.3560   17.3680   15.4790 O   0  0  0  0  0  0  0  0  0  0  0  0
   45.1070   16.2690   17.2470 O   0  5  0  0  0  0  0  0  0  0  0  0
   42.7080   14.9060   14.8290 C   0  0  0  0  0  0  0  0  0  0  0  0
   42.5510   15.7850   13.8070 O   0  0  0  0  0  0  0  0  0  0  0  0
   41.1810   16.2590   13.6050 C   0  0  0  0  0  0  0  0  0  0  0  0
   41.4220   17.6440   12.9320 C   0  0  0  0  0  0  0  0  0  0  0  0
   42.5660   17.9350   12.5640 O   0  0  0  0  0  0  0  0  0  0  0  0
   40.4000   18.3510   12.7950 O   0  5  0  0  0  0  0  0  0  0  0  0
   42.0950   13.5970   14.8890 C   0  0  0  0  0  0  0  0  0  0  0  0
   40.8830   12.9830   13.5470 Br  0  0  0  0  0  0  0  0  0  0  0  0
   40.7480   11.0900   16.0380 C   0  0  0  0  0  0  0  0  0  0  0  0
   35.4720    6.8270   14.3550 H   0  0  0  0  0  0  0  0  0  0  0  0
   36.9280    5.9340   14.9440 H   0  0  0  0  0  0  0  0  0  0  0  0
   35.9070    6.8710   16.1090 H   0  0  0  0  0  0  0  0  0  0  0  0
   37.5450    8.0720   13.7560 H   0  0  0  0  0  0  0  0  0  0  0  0
   36.5160    9.0130   14.9060 H   0  0  0  0  0  0  0  0  0  0  0  0
   38.6980   10.1110   14.9240 H   0  0  0  0  0  0  0  0  0  0  0  0
   40.9750    7.7550   16.8270 H   0  0  0  0  0  0  0  0  0  0  0  0
   43.1950    8.5250   17.5830 H   0  0  0  0  0  0  0  0  0  0  0  0
   43.9650   10.8240   17.1640 H   0  0  0  0  0  0  0  0  0  0  0  0
   40.6620   15.5680   12.9090 H   0  0  0  0  0  0  0  0  0  0  0  0
   40.6310   16.3340   14.5660 H   0  0  0  0  0  0  0  0  0  0  0  0
   39.9990   11.8180   15.7200 H   0  0  0  0  0  0  0  0  0  0  0  0
  1  2  1  0  0  0  0
  1 26  1  0  0  0  0
  1 27  1  0  0  0  0
  1 28  1  0  0  0  0
  2  3  1  0  0  0  0
  2 29  1  0  0  0  0
  2 30  1  0  0  0  0
  3  4  2  0  0  0  0
  3  5  1  0  0  0  0
  5  6  1  0  0  0  0
  5 31  1  0  0  0  0
  6 25  2  0  0  0  0
  6  7  1  0  0  0  0
  7  8  2  0  0  0  0
  7 32  1  0  0  0  0
  8  9  1  0  0  0  0
  8 33  1  0  0  0  0
  9 10  2  0  0  0  0
  9 34  1  0  0  0  0
 10 11  1  0  0  0  0
 10 25  1  0  0  0  0
 11 23  2  0  0  0  0
 11 12  1  0  0  0  0
 12 13  1  0  0  0  0
 13 14  1  0  0  0  0
 13 17  2  0  0  0  0
 14 15  2  0  0  0  0
 14 16  1  0  0  0  0
 17 18  1  0  0  0  0
 17 23  1  0  0  0  0
 18 19  1  0  0  0  0
 19 20  1  0  0  0  0
 19 35  1  0  0  0  0
 19 36  1  0  0  0  0
 20 21  2  0  0  0  0
 20 22  1  0  0  0  0
 23 24  1  0  0  0  0
 25 37  1  0  0  0  0
M  CHG  2  16  -1  22  -1
M  END
$$$$
