23483
                    3D
 Schrodinger Suite 2022-3.
 57 60  0  0  1  0  0  0  0  0999 V2000
   43.7560   13.9930   16.5960 S   0  0  0  0  0  0  0  0  0  0  0  0
   43.5250   15.3410   15.5030 C   0  0  0  0  0  0  0  0  0  0  0  0
   42.5600   15.0110   14.5840 C   0  0  0  0  0  0  0  0  0  0  0  0
   42.0300   13.6760   14.7650 C   0  0  0  0  0  0  0  0  0  0  0  0
   42.5480   12.9920   15.8330 C   0  0  0  0  0  0  0  0  0  0  0  0
   44.3490   16.6120   15.7120 C   0  0  0  0  0  0  0  0  0  0  0  0
   45.1720   16.5510   16.6540 O   0  0  0  0  0  0  0  0  0  0  0  0
   44.1730   17.5870   14.9810 O   0  5  0  0  0  0  0  0  0  0  0  0
   42.2370   11.6590   16.3060 C   0  0  0  0  0  0  0  0  0  0  0  0
   40.9360   11.1600   16.1560 C   0  0  0  0  0  0  0  0  0  0  0  0
   40.6420    9.8070   16.4330 C   0  0  0  0  0  0  0  0  0  0  0  0
   41.6260    8.9870   17.0020 C   0  0  0  0  0  0  0  0  0  0  0  0
   42.9020    9.5200   17.2390 C   0  0  0  0  0  0  0  0  0  0  0  0
   43.2240   10.8230   16.8780 C   0  0  0  0  0  0  0  0  0  0  0  0
   40.7740   12.9200   13.5470 Br  0  0  0  0  0  0  0  0  0  0  0  0
   42.2340   15.8220   13.5470 O   0  0  0  0  0  0  0  0  0  0  0  0
   40.8250   16.2200   13.5030 C   0  0  0  0  0  0  0  0  0  0  0  0
   40.9130   17.6320   12.8420 C   0  0  0  0  0  0  0  0  0  0  0  0
   39.8050   18.1540   12.5870 O   0  5  0  0  0  0  0  0  0  0  0  0
   42.0300   18.1030   12.6100 O   0  0  0  0  0  0  0  0  0  0  0  0
   39.2960    9.3760   16.1630 N   0  0  0  0  0  0  0  0  0  0  0  0
   39.0490    7.9170   16.0040 C   0  0  0  0  0  0  0  0  0  0  0  0
   37.5250    7.6610   15.9310 C   0  0  0  0  0  0  0  0  0  0  0  0
   37.2540    6.1460   15.8480 C   0  0  0  0  0  0  0  0  0  0  0  0
   37.9380    5.5380   14.6630 N   0  0  1  0  0  0  0  0  0  0  0  0
   39.4120    5.8130   14.6300 C   0  0  0  0  0  0  0  0  0  0  0  0
   39.7090    7.3190   14.7360 C   0  0  0  0  0  0  0  0  0  0  0  0
   37.4780    3.9340   14.2440 S   0  0  0  0  0  0  0  0  0  0  0  0
   37.5010    3.8240   12.7770 O   0  0  0  0  0  0  0  0  0  0  0  0
   36.1480    3.6370   14.8140 O   0  0  0  0  0  0  0  0  0  0  0  0
   40.1170   11.8040   15.8250 H   0  0  0  0  0  0  0  0  0  0  0  0
   41.4300    7.9520   17.2650 H   0  0  0  0  0  0  0  0  0  0  0  0
   43.6500    8.8730   17.7040 H   0  0  0  0  0  0  0  0  0  0  0  0
   44.2440   11.1770   17.0360 H   0  0  0  0  0  0  0  0  0  0  0  0
   40.2840   15.5020   12.8560 H   0  0  0  0  0  0  0  0  0  0  0  0
   40.3750   16.2550   14.5160 H   0  0  0  0  0  0  0  0  0  0  0  0
   38.8650    9.9020   15.3800 H   0  0  0  0  0  0  0  0  0  0  0  0
   39.4480    7.3870   16.9110 H   0  0  0  0  0  0  0  0  0  0  0  0
   37.0840    8.1740   15.0440 H   0  0  0  0  0  0  0  0  0  0  0  0
   37.0300    8.0550   16.8520 H   0  0  0  0  0  0  0  0  0  0  0  0
   36.1460    5.9920   15.7400 H   0  0  0  0  0  0  0  0  0  0  0  0
   37.5990    5.6650   16.8050 H   0  0  0  0  0  0  0  0  0  0  0  0
   39.8310    5.4420   13.6570 H   0  0  0  0  0  0  0  0  0  0  0  0
   39.9440    5.2920   15.4740 H   0  0  0  0  0  0  0  0  0  0  0  0
   40.8180    7.4350   14.7960 H   0  0  0  0  0  0  0  0  0  0  0  0
   39.3400    7.8440   13.8260 H   0  0  0  0  0  0  0  0  0  0  0  0
   40.5220    1.0720   16.0560 C   0  0  0  0  0  0  0  0  0  0  0  0
   39.5890    1.7220   16.8720 C   0  0  0  0  0  0  0  0  0  0  0  0
   38.6630    2.6070   16.3130 C   0  0  0  0  0  0  0  0  0  0  0  0
   38.6600    2.8450   14.9330 C   0  0  0  0  0  0  0  0  0  0  0  0
   39.6070    2.2130   14.1210 C   0  0  0  0  0  0  0  0  0  0  0  0
   40.5310    1.3210   14.6810 C   0  0  0  0  0  0  0  0  0  0  0  0
   41.2460    0.3800   16.4950 H   0  0  0  0  0  0  0  0  0  0  0  0
   39.5930    1.5410   17.9520 H   0  0  0  0  0  0  0  0  0  0  0  0
   37.9550    3.1090   16.9850 H   0  0  0  0  0  0  0  0  0  0  0  0
   39.6610    2.4060   13.0410 H   0  0  0  0  0  0  0  0  0  0  0  0
   41.2700    0.8260   14.0450 H   0  0  0  0  0  0  0  0  0  0  0  0
  1  2  1  0  0  0  0
  1  5  1  0  0  0  0
  2  3  2  0  0  0  0
  2  6  1  0  0  0  0
  3  4  1  0  0  0  0
  3 16  1  0  0  0  0
  4  5  2  0  0  0  0
  4 15  1  0  0  0  0
  5  9  1  0  0  0  0
  6  7  2  0  0  0  0
  6  8  1  0  0  0  0
  9 10  1  0  0  0  0
  9 14  2  0  0  0  0
 10 11  2  0  0  0  0
 10 31  1  0  0  0  0
 11 12  1  0  0  0  0
 11 21  1  0  0  0  0
 12 13  2  0  0  0  0
 12 32  1  0  0  0  0
 13 14  1  0  0  0  0
 13 33  1  0  0  0  0
 14 34  1  0  0  0  0
 16 17  1  0  0  0  0
 17 18  1  0  0  0  0
 17 35  1  0  0  0  0
 17 36  1  0  0  0  0
 18 19  1  0  0  0  0
 18 20  2  0  0  0  0
 21 22  1  0  0  0  0
 21 37  1  0  0  0  0
 22 23  1  0  0  0  0
 22 27  1  0  0  0  0
 22 38  1  0  0  0  0
 23 24  1  0  0  0  0
 23 39  1  0  0  0  0
 23 40  1  0  0  0  0
 24 25  1  0  0  0  0
 24 41  1  0  0  0  0
 24 42  1  0  0  0  0
 25 26  1  0  0  0  0
 25 28  1  0  0  0  0
 26 27  1  0  0  0  0
 26 43  1  0  0  0  0
 26 44  1  0  0  0  0
 27 45  1  0  0  0  0
 27 46  1  0  0  0  0
 28 29  2  0  0  0  0
 28 30  2  0  0  0  0
 28 50  1  0  0  0  0
 47 48  2  0  0  0  0
 47 52  1  0  0  0  0
 47 53  1  0  0  0  0
 48 49  1  0  0  0  0
 48 54  1  0  0  0  0
 49 50  2  0  0  0  0
 49 55  1  0  0  0  0
 50 51  1  0  0  0  0
 51 52  2  0  0  0  0
 51 56  1  0  0  0  0
 52 57  1  0  0  0  0
M  CHG  2   8  -1  19  -1
M  END
$$$$
