18625-1
                    3D
 Schrodinger Suite 2022-3.
 38 39  0  0  1  0  0  0  0  0999 V2000
   25.9740    4.2080   30.9270 C   0  0  0  0  0  0  0  0  0  0  0  0
   24.7470    4.4220   30.2920 C   0  0  0  0  0  0  0  0  0  0  0  0
   23.5580    3.8350   30.7510 C   0  0  0  0  0  0  0  0  0  0  0  0
   23.6440    2.9570   31.8450 C   0  0  0  0  0  0  0  0  0  0  0  0
   24.8640    2.7270   32.4850 C   0  0  0  0  0  0  0  0  0  0  0  0
   26.0270    3.3620   32.0360 C   0  0  0  0  0  0  0  0  0  0  0  0
   22.2200    4.0990   30.1240 C   0  0  0  0  0  0  0  0  0  0  0  0
   21.3960    5.1080   30.9140 C   0  0  0  0  0  0  0  0  0  0  0  0
   21.9370    6.4150   30.8940 N   0  0  0  0  0  0  0  0  0  0  0  0
   21.3640    7.5810   31.4590 C   0  0  0  0  0  0  0  0  0  0  0  0
   20.3510    4.8420   31.4670 O   0  0  0  0  0  0  0  0  0  0  0  0
   22.1010    8.7100   31.1410 N   0  0  0  0  0  0  0  0  0  0  0  0
   21.6410    9.9030   31.5830 C   0  0  0  0  0  0  0  0  0  0  0  0
   20.4610   10.0730   32.3680 C   0  0  0  0  0  0  0  0  0  0  0  0
   19.7300    8.8850   32.6940 C   0  0  0  0  0  0  0  0  0  0  0  0
   20.2050    7.6290   32.2280 C   0  0  0  0  0  0  0  0  0  0  0  0
   18.5740    8.9470   33.4310 N   0  0  0  0  0  0  0  0  0  0  0  0
   20.0720   11.3750   32.7460 C   0  0  0  0  0  0  0  0  0  0  0  0
   22.3030   11.0350   31.2660 O   0  0  0  0  0  0  0  0  0  0  0  0
   23.5660   10.9580   30.5010 C   0  0  0  0  0  0  0  0  0  0  0  0
   23.2790   10.7700   29.0270 C   0  0  0  0  0  0  0  0  0  0  0  0
   19.8040   12.4710   33.0180 N   0  0  0  0  0  0  0  0  0  0  0  0
   26.8860    4.6900   30.5570 H   0  0  0  0  0  0  0  0  0  0  0  0
   22.7530    2.4290   32.1920 H   0  0  0  0  0  0  0  0  0  0  0  0
   19.6460    6.7220   32.4660 H   0  0  0  0  0  0  0  0  0  0  0  0
   21.6470    3.1330   30.0800 H   0  0  0  0  0  0  0  0  0  0  0  0
   22.3260    4.4780   29.0740 H   0  0  0  0  0  0  0  0  0  0  0  0
   22.8320    6.5700   30.3860 H   0  0  0  0  0  0  0  0  0  0  0  0
   18.0680    8.0880   33.7170 H   0  0  0  0  0  0  0  0  0  0  0  0
   18.1970    9.8400   33.7510 H   0  0  0  0  0  0  0  0  0  0  0  0
   24.2070   10.1490   30.9190 H   0  0  0  0  0  0  0  0  0  0  0  0
   23.9700   11.9740   30.7280 H   0  0  0  0  0  0  0  0  0  0  0  0
   24.2230   10.9190   28.4450 H   0  0  0  0  0  0  0  0  0  0  0  0
   22.9000    9.7430   28.8130 H   0  0  0  0  0  0  0  0  0  0  0  0
   22.5310   11.5100   28.6630 H   0  0  0  0  0  0  0  0  0  0  0  0
   26.9810    3.1860   32.5440 H   0  0  0  0  0  0  0  0  0  0  0  0
   24.9140    2.0400   33.3360 H   0  0  0  0  0  0  0  0  0  0  0  0
   24.7500    5.4030   28.8700 Cl  0  0  0  0  0  0  0  0  0  0  0  0
  1  2  1  0  0  0  0
  1  6  2  0  0  0  0
  1 23  1  0  0  0  0
  2  3  2  0  0  0  0
  2 38  1  0  0  0  0
  3  4  1  0  0  0  0
  3  7  1  0  0  0  0
  4  5  2  0  0  0  0
  4 24  1  0  0  0  0
  5  6  1  0  0  0  0
  5 37  1  0  0  0  0
  6 36  1  0  0  0  0
  7  8  1  0  0  0  0
  7 26  1  0  0  0  0
  7 27  1  0  0  0  0
  8  9  1  0  0  0  0
  8 11  2  0  0  0  0
  9 10  1  0  0  0  0
  9 28  1  0  0  0  0
 10 12  1  0  0  0  0
 10 16  2  0  0  0  0
 12 13  2  0  0  0  0
 13 14  1  0  0  0  0
 13 19  1  0  0  0  0
 14 15  2  0  0  0  0
 14 18  1  0  0  0  0
 15 16  1  0  0  0  0
 15 17  1  0  0  0  0
 16 25  1  0  0  0  0
 17 29  1  0  0  0  0
 17 30  1  0  0  0  0
 18 22  3  0  0  0  0
 19 20  1  0  0  0  0
 20 21  1  0  0  0  0
 20 31  1  0  0  0  0
 20 32  1  0  0  0  0
 21 33  1  0  0  0  0
 21 34  1  0  0  0  0
 21 35  1  0  0  0  0
M  END
$$$$
