p38a_2ff
 OpenBabel02232411163D
Structure written by MMmdl.
 49 52  0  0  1  0  0  0  0  0999 V2000
   38.2660   36.5170   17.1930 C   0  0  0  0  0  0  0  0  0  0  0  0
   34.5240   35.1160   21.2590 C   0  0  0  0  0  0  0  0  0  0  0  0
   37.4740   36.0640   18.2440 C   0  0  0  0  0  0  0  0  0  0  0  0
   34.0490   39.2400   23.7500 C   0  0  0  0  0  0  0  0  0  0  0  0
   34.6420   37.9920   21.3590 C   0  0  0  0  0  0  0  0  0  0  0  0
   35.0260   37.3130   20.1530 C   0  0  0  0  0  0  0  0  0  0  0  0
   37.6300   36.6670   15.9530 C   0  0  0  0  0  0  0  0  0  0  0  0
   36.2860   36.3590   15.7340 C   0  0  0  0  0  0  0  0  0  0  0  0
   35.5140   35.8930   16.8040 C   0  0  0  0  0  0  0  0  0  0  0  0
   34.2800   37.2470   22.5190 C   0  0  0  0  0  0  0  0  0  0  0  0
   34.6210   39.4090   21.4750 C   0  0  0  0  0  0  0  0  0  0  0  0
   35.0030   35.9600   20.1330 C   0  0  0  0  0  0  0  0  0  0  0  0
   36.1130   35.7380   18.0570 C   0  0  0  0  0  0  0  0  0  0  0  0
   33.8230   35.0910   23.6860 C   0  0  0  0  0  0  0  0  0  0  0  0
   37.9960   35.9360   19.4570 F   0  0  0  0  0  0  0  0  0  0  0  0
   35.3800   35.1250   19.0820 O   0  0  0  0  0  0  0  0  0  0  0  0
   34.3390   40.0410   22.6210 N   0  0  0  0  0  0  0  0  0  0  0  0
   34.3810   33.9130   21.2270 O   0  0  0  0  0  0  0  0  0  0  0  0
   34.2150   35.8440   22.4610 N   0  0  0  0  0  0  0  0  0  0  0  0
   33.9830   37.8620   23.7100 N   0  0  0  0  0  0  0  0  0  0  0  0
   33.8610   39.9170   24.9290 N   0  0  0  0  0  0  0  0  0  0  0  0
   39.3180   36.7810   17.3350 H   0  0  0  0  0  0  0  0  0  0  0  0
   35.3360   37.9150   19.2970 H   0  0  0  0  0  0  0  0  0  0  0  0
   35.8260   36.4940   14.7530 H   0  0  0  0  0  0  0  0  0  0  0  0
   34.4520   35.6710   16.6530 H   0  0  0  0  0  0  0  0  0  0  0  0
   34.8340   40.0350   20.5930 H   0  0  0  0  0  0  0  0  0  0  0  0
   34.5630   35.2860   24.5080 H   0  0  0  0  0  0  0  0  0  0  0  0
   32.8090   35.4290   24.0340 H   0  0  0  0  0  0  0  0  0  0  0  0
   33.7900   33.9910   23.4720 H   0  0  0  0  0  0  0  0  0  0  0  0
   33.8540   40.9550   24.9170 H   0  0  0  0  0  0  0  0  0  0  0  0
   38.3360   37.1680   14.9410 F   0  0  0  0  0  0  0  0  0  0  0  0
   33.9520   37.8180   28.1630 C   0  0  0  0  0  0  0  0  0  0  0  0
   34.4140   38.3150   26.7860 C   0  0  0  0  0  0  0  0  0  0  0  0
   33.4040   39.3430   26.2310 C   0  0  2  0  0  0  0  0  0  0  0  0
   31.9780   38.7550   26.1360 C   0  0  0  0  0  0  0  0  0  0  0  0
   31.5250   38.2580   27.5160 C   0  0  0  0  0  0  0  0  0  0  0  0
   32.5320   37.2290   28.0680 C   0  0  2  0  0  0  0  0  0  0  0  0
   33.9740   38.6620   28.8920 H   0  0  0  0  0  0  0  0  0  0  0  0
   34.6590   37.0310   28.5210 H   0  0  0  0  0  0  0  0  0  0  0  0
   34.5000   37.4450   26.0920 H   0  0  0  0  0  0  0  0  0  0  0  0
   35.4160   38.7950   26.8810 H   0  0  0  0  0  0  0  0  0  0  0  0
   33.3780   40.2310   26.9310 H   0  0  0  0  0  0  0  0  0  0  0  0
   31.2750   39.5410   25.7750 H   0  0  0  0  0  0  0  0  0  0  0  0
   31.9630   37.9030   25.4140 H   0  0  0  0  0  0  0  0  0  0  0  0
   31.4430   39.1220   28.2150 H   0  0  0  0  0  0  0  0  0  0  0  0
   30.5190   37.7870   27.4260 H   0  0  0  0  0  0  0  0  0  0  0  0
   32.5240   36.2930   27.4600 H   0  0  0  0  0  0  0  0  0  0  0  0
   32.1030   36.7560   29.3610 O   0  0  0  0  0  0  0  0  0  0  0  0
   32.0740   37.5080   30.0030 H   0  0  0  0  0  0  0  0  0  0  0  0
  1  3  2  0  0  0  0
  1  7  1  0  0  0  0
  1 22  1  0  0  0  0
  2 12  1  0  0  0  0
  2 18  2  0  0  0  0
  2 19  1  0  0  0  0
  3 13  1  0  0  0  0
  3 15  1  0  0  0  0
  4 17  2  0  0  0  0
  4 20  1  0  0  0  0
  4 21  1  0  0  0  0
  5  6  1  0  0  0  0
  5 10  1  0  0  0  0
  5 11  2  0  0  0  0
  6 12  2  0  0  0  0
  6 23  1  0  0  0  0
  7  8  2  0  0  0  0
  7 31  1  0  0  0  0
  8  9  1  0  0  0  0
  8 24  1  0  0  0  0
  9 13  2  0  0  0  0
  9 25  1  0  0  0  0
 10 19  1  0  0  0  0
 10 20  2  0  0  0  0
 11 17  1  0  0  0  0
 11 26  1  0  0  0  0
 12 16  1  0  0  0  0
 13 16  1  0  0  0  0
 14 19  1  0  0  0  0
 14 27  1  0  0  0  0
 14 28  1  0  0  0  0
 14 29  1  0  0  0  0
 21 30  1  0  0  0  0
 21 34  1  0  0  0  0
 32 33  1  0  0  0  0
 32 37  1  0  0  0  0
 32 38  1  0  0  0  0
 32 39  1  0  0  0  0
 33 34  1  0  0  0  0
 33 40  1  0  0  0  0
 33 41  1  0  0  0  0
 34 35  1  0  0  0  0
 34 42  1  6  0  0  0
 35 36  1  0  0  0  0
 35 43  1  0  0  0  0
 35 44  1  0  0  0  0
 36 37  1  0  0  0  0
 36 45  1  0  0  0  0
 36 46  1  0  0  0  0
 37 47  1  1  0  0  0
 37 48  1  0  0  0  0
 48 49  1  0  0  0  0
M  END
$$$$
