p38a_2z
 OpenBabel02232411163D
Structure written by MMmdl.
 45 47  0  0  0  0  0  0  0  0999 V2000
   36.4130   36.1510   15.6610 C   0  0  0  0  0  0  0  0  0  0  0  0
   34.5750   34.8940   21.0550 C   0  0  0  0  0  0  0  0  0  0  0  0
   35.8180   35.6190   16.7990 C   0  0  0  0  0  0  0  0  0  0  0  0
   33.8670   38.8560   23.7510 C   0  0  0  0  0  0  0  0  0  0  0  0
   32.8300   38.7250   26.0980 C   0  0  0  0  0  0  0  0  0  0  0  0
   34.8310   37.7440   21.4070 C   0  0  0  0  0  0  0  0  0  0  0  0
   35.3920   37.1260   20.2360 C   0  0  0  0  0  0  0  0  0  0  0  0
   37.6990   36.6830   15.8200 C   0  0  0  0  0  0  0  0  0  0  0  0
   38.3900   36.6800   17.0340 C   0  0  0  0  0  0  0  0  0  0  0  0
   37.7550   36.1750   18.1740 C   0  0  0  0  0  0  0  0  0  0  0  0
   34.2370   36.9390   22.4230 C   0  0  0  0  0  0  0  0  0  0  0  0
   34.8520   39.1470   21.6370 C   0  0  0  0  0  0  0  0  0  0  0  0
   35.2930   35.7830   20.1020 C   0  0  0  0  0  0  0  0  0  0  0  0
   36.4690   35.6430   18.0500 C   0  0  0  0  0  0  0  0  0  0  0  0
   33.4820   34.7380   23.3250 C   0  0  0  0  0  0  0  0  0  0  0  0
   34.6170   35.0590   16.7350 F   0  0  0  0  0  0  0  0  0  0  0  0
   35.8110   34.9770   19.0910 O   0  0  0  0  0  0  0  0  0  0  0  0
   34.3930   39.7150   22.7610 N   0  0  0  0  0  0  0  0  0  0  0  0
   34.3700   33.7120   20.8900 O   0  0  0  0  0  0  0  0  0  0  0  0
   34.1070   35.5520   22.2460 N   0  0  0  0  0  0  0  0  0  0  0  0
   33.7580   37.4860   23.5850 N   0  0  0  0  0  0  0  0  0  0  0  0
   33.3910   39.4410   24.8950 N   0  0  0  0  0  0  0  0  0  0  0  0
   35.8980   36.1730   14.6990 H   0  0  0  0  0  0  0  0  0  0  0  0
   32.2570   39.8250   27.0120 C   0  0  0  0  0  0  0  0  0  0  0  0
   35.8880   37.7650   19.5040 H   0  0  0  0  0  0  0  0  0  0  0  0
   39.3990   37.0910   17.1120 H   0  0  0  0  0  0  0  0  0  0  0  0
   38.2600   36.2240   19.1420 H   0  0  0  0  0  0  0  0  0  0  0  0
   35.2560   39.8220   20.8640 H   0  0  0  0  0  0  0  0  0  0  0  0
   33.9900   34.9470   24.3070 H   0  0  0  0  0  0  0  0  0  0  0  0
   32.3960   35.0020   23.4230 H   0  0  0  0  0  0  0  0  0  0  0  0
   33.5800   33.6460   23.0940 H   0  0  0  0  0  0  0  0  0  0  0  0
   33.5230   40.4680   25.0200 H   0  0  0  0  0  0  0  0  0  0  0  0
   38.2730   37.2500   14.7610 F   0  0  0  0  0  0  0  0  0  0  0  0
   31.6850   37.7130   25.7370 C   0  0  0  0  0  0  0  0  0  0  0  0
   33.9610   37.9710   26.8190 C   0  0  0  0  0  0  0  0  0  0  0  0
   30.9600   38.0620   24.5550 O   0  0  0  0  0  0  0  0  0  0  0  0
   31.5530   37.8970   23.7930 H   0  0  0  0  0  0  0  0  0  0  0  0
   32.1040   36.6850   25.6170 H   0  0  0  0  0  0  0  0  0  0  0  0
   30.9030   37.7290   26.5320 H   0  0  0  0  0  0  0  0  0  0  0  0
   33.5680   37.5080   27.7550 H   0  0  0  0  0  0  0  0  0  0  0  0
   34.3840   37.1610   26.1830 H   0  0  0  0  0  0  0  0  0  0  0  0
   34.7840   38.6670   27.1000 H   0  0  0  0  0  0  0  0  0  0  0  0
   31.8100   39.3680   27.9240 H   0  0  0  0  0  0  0  0  0  0  0  0
   33.0550   40.5260   27.3500 H   0  0  0  0  0  0  0  0  0  0  0  0
   31.4780   40.4000   26.4670 H   0  0  0  0  0  0  0  0  0  0  0  0
  1  3  2  0  0  0  0
  1  8  1  0  0  0  0
  1 23  1  0  0  0  0
  2 13  1  0  0  0  0
  2 19  2  0  0  0  0
  2 20  1  0  0  0  0
  3 14  1  0  0  0  0
  3 16  1  0  0  0  0
  4 18  2  0  0  0  0
  4 21  1  0  0  0  0
  4 22  1  0  0  0  0
  5 22  1  0  0  0  0
  5 24  1  0  0  0  0
  5 34  1  0  0  0  0
  5 35  1  0  0  0  0
  6  7  1  0  0  0  0
  6 11  1  0  0  0  0
  6 12  2  0  0  0  0
  7 13  2  0  0  0  0
  7 25  1  0  0  0  0
  8  9  2  0  0  0  0
  8 33  1  0  0  0  0
  9 10  1  0  0  0  0
  9 26  1  0  0  0  0
 10 14  2  0  0  0  0
 10 27  1  0  0  0  0
 11 20  1  0  0  0  0
 11 21  2  0  0  0  0
 12 18  1  0  0  0  0
 12 28  1  0  0  0  0
 13 17  1  0  0  0  0
 14 17  1  0  0  0  0
 15 20  1  0  0  0  0
 15 29  1  0  0  0  0
 15 30  1  0  0  0  0
 15 31  1  0  0  0  0
 22 32  1  0  0  0  0
 24 43  1  0  0  0  0
 24 44  1  0  0  0  0
 24 45  1  0  0  0  0
 34 36  1  0  0  0  0
 34 38  1  0  0  0  0
 34 39  1  0  0  0  0
 35 40  1  0  0  0  0
 35 41  1  0  0  0  0
 35 42  1  0  0  0  0
 36 37  1  0  0  0  0
M  END
$$$$
