68 flip
                    3D
 Schrodinger Suite 2022-3.
 43 46  0  0  1  0  0  0  0  0999 V2000
    3.3220  -47.7350    7.3430 O   0  0  0  0  0  0  0  0  0  0  0  0
    3.1500  -48.8310    6.8020 C   0  0  0  0  0  0  0  0  0  0  0  0
    3.9830  -49.6760    6.4490 O   0  5  0  0  0  0  0  0  0  0  0  0
    1.6720  -49.2280    6.5600 C   0  0  0  0  0  0  0  0  0  0  0  0
    0.0680  -50.7760    6.7410 C   0  0  0  0  0  0  0  0  0  0  0  0
   -0.6330  -51.9390    7.0380 C   0  0  0  0  0  0  0  0  0  0  0  0
   -2.0000  -51.9270    6.7520 C   0  0  0  0  0  0  0  0  0  0  0  0
   -2.5810  -50.7810    6.1860 C   0  0  0  0  0  0  0  0  0  0  0  0
   -1.8890  -49.6100    5.8820 C   0  0  0  0  0  0  0  0  0  0  0  0
   -0.5240  -49.5980    6.1760 C   0  0  0  0  0  0  0  0  0  0  0  0
    0.5410  -48.6150    6.0840 C   0  0  0  0  0  0  0  0  0  0  0  0
    0.3740  -47.2210    5.5930 C   0  0  0  0  0  0  0  0  0  0  0  0
    0.1760  -46.2120    6.7410 C   0  0  0  0  0  0  0  0  0  0  0  0
   -1.1720  -46.3690    7.4450 C   0  0  0  0  0  0  0  0  0  0  0  0
   -2.1480  -45.9620    6.4250 O   0  0  0  0  0  0  0  0  0  0  0  0
   -3.3610  -45.4280    6.7530 C   0  0  0  0  0  0  0  0  0  0  0  0
   -5.8640  -44.1700    7.0040 C   0  0  0  0  0  0  0  0  0  0  0  0
   -5.0770  -43.9280    5.9020 C   0  0  0  0  0  0  0  0  0  0  0  0
   -3.8140  -44.5440    5.7790 C   0  0  0  0  0  0  0  0  0  0  0  0
   -0.1690  -52.8240    7.4780 H   0  0  0  0  0  0  0  0  0  0  0  0
   -2.6150  -52.8010    6.9750 H   0  0  0  0  0  0  0  0  0  0  0  0
   -4.2830  -50.8280    5.8530 Cl  0  0  0  0  0  0  0  0  0  0  0  0
   -2.3980  -48.7510    5.4430 H   0  0  0  0  0  0  0  0  0  0  0  0
   -0.5260  -47.1720    4.9250 H   0  0  0  0  0  0  0  0  0  0  0  0
    1.2710  -46.9110    5.0030 H   0  0  0  0  0  0  0  0  0  0  0  0
    0.2370  -45.1780    6.3300 H   0  0  0  0  0  0  0  0  0  0  0  0
    0.9820  -46.3530    7.5020 H   0  0  0  0  0  0  0  0  0  0  0  0
   -1.2700  -45.6990    8.3220 H   0  0  0  0  0  0  0  0  0  0  0  0
   -1.3920  -47.4370    7.6610 H   0  0  0  0  0  0  0  0  0  0  0  0
   -3.2000  -44.3260    4.9130 H   0  0  0  0  0  0  0  0  0  0  0  0
   -5.4240  -45.0730    8.0160 C   0  0  0  0  0  0  0  0  0  0  0  0
   -4.1790  -45.7600    7.8920 C   0  0  0  0  0  0  0  0  0  0  0  0
   -3.8780  -46.7740    8.8510 C   0  0  0  0  0  0  0  0  0  0  0  0
   -4.7110  -47.0240    9.9130 C   0  0  0  0  0  0  0  0  0  0  0  0
   -5.9060  -46.2710   10.0800 C   0  0  0  0  0  0  0  0  0  0  0  0
   -6.2590  -45.3280    9.1510 C   0  0  0  0  0  0  0  0  0  0  0  0
   -2.9990  -47.4040    8.7270 H   0  0  0  0  0  0  0  0  0  0  0  0
   -4.4900  -47.8180   10.6260 H   0  0  0  0  0  0  0  0  0  0  0  0
   -6.5480  -46.4720   10.9340 H   0  0  0  0  0  0  0  0  0  0  0  0
   -7.1920  -44.7740    9.2480 H   0  0  0  0  0  0  0  0  0  0  0  0
   -5.4150  -43.2540    5.1130 H   0  0  0  0  0  0  0  0  0  0  0  0
   -6.8370  -43.6920    7.1080 H   0  0  0  0  0  0  0  0  0  0  0  0
    1.4270  -50.5560    6.9610 O   0  0  0  0  0  0  0  0  0  0  0  0
  1  2  2  0  0  0  0
  2  3  1  0  0  0  0
  2  4  1  0  0  0  0
  4 11  2  0  0  0  0
  4 43  1  0  0  0  0
  5  6  1  0  0  0  0
  5 10  2  0  0  0  0
  5 43  1  0  0  0  0
  6  7  2  0  0  0  0
  6 20  1  0  0  0  0
  7  8  1  0  0  0  0
  7 21  1  0  0  0  0
  8  9  2  0  0  0  0
  8 22  1  0  0  0  0
  9 10  1  0  0  0  0
  9 23  1  0  0  0  0
 10 11  1  0  0  0  0
 11 12  1  0  0  0  0
 12 24  1  0  0  0  0
 12 25  1  0  0  0  0
 12 13  1  0  0  0  0
 13 14  1  0  0  0  0
 13 26  1  0  0  0  0
 13 27  1  0  0  0  0
 14 15  1  0  0  0  0
 14 28  1  0  0  0  0
 14 29  1  0  0  0  0
 15 16  1  0  0  0  0
 16 19  2  0  0  0  0
 16 32  1  0  0  0  0
 17 18  2  0  0  0  0
 17 31  1  0  0  0  0
 17 42  1  0  0  0  0
 18 19  1  0  0  0  0
 18 41  1  0  0  0  0
 19 30  1  0  0  0  0
 31 32  2  0  0  0  0
 31 36  1  0  0  0  0
 32 33  1  0  0  0  0
 33 34  2  0  0  0  0
 33 37  1  0  0  0  0
 34 35  1  0  0  0  0
 34 38  1  0  0  0  0
 35 36  2  0  0  0  0
 35 39  1  0  0  0  0
 36 40  1  0  0  0  0
M  CHG  1   3  -1
M  END
$$$$
