p38a_3fmk
 OpenBabel02232411163D
Structure written by MMmdl.
 46 49  0  0  1  0  0  0  0  0999 V2000
   37.4800   36.0650   18.1870 C   0  0  0  0  0  0  0  0  0  0  0  0
   38.2780   36.5320   17.1470 C   0  0  0  0  0  0  0  0  0  0  0  0
   34.0550   35.0860   23.6790 C   0  0  0  0  0  0  0  0  0  0  0  0
   36.3050   36.3900   15.6760 C   0  0  0  0  0  0  0  0  0  0  0  0
   34.6460   39.4050   21.3960 C   0  0  0  0  0  0  0  0  0  0  0  0
   33.7960   39.2280   26.1780 C   0  0  1  0  0  0  0  0  0  0  0  0
   32.7330   40.0220   27.0050 C   0  0  0  0  0  0  0  0  0  0  0  0
   34.1680   39.2410   23.6840 C   0  0  0  0  0  0  0  0  0  0  0  0
   34.5920   35.1100   21.2110 C   0  0  0  0  0  0  0  0  0  0  0  0
   35.0210   35.9530   20.0640 C   0  0  0  0  0  0  0  0  0  0  0  0
   35.0230   37.3060   20.0740 C   0  0  0  0  0  0  0  0  0  0  0  0
   36.1220   35.7380   17.9880 C   0  0  0  0  0  0  0  0  0  0  0  0
   35.5280   35.9070   16.7340 C   0  0  0  0  0  0  0  0  0  0  0  0
   34.6830   37.9900   21.2910 C   0  0  0  0  0  0  0  0  0  0  0  0
   34.4010   37.2420   22.4730 C   0  0  0  0  0  0  0  0  0  0  0  0
   33.8510   39.9080   24.8510 N   0  0  0  0  0  0  0  0  0  0  0  0
   37.6480   36.6960   15.9050 C   0  0  0  0  0  0  0  0  0  0  0  0
   38.3570   37.2110   14.9040 F   0  0  0  0  0  0  0  0  0  0  0  0
   37.9940   35.9280   19.4030 F   0  0  0  0  0  0  0  0  0  0  0  0
   35.3800   35.1200   19.0050 O   0  0  0  0  0  0  0  0  0  0  0  0
   34.4330   33.9090   21.1860 O   0  0  0  0  0  0  0  0  0  0  0  0
   34.3570   35.8400   22.4300 N   0  0  0  0  0  0  0  0  0  0  0  0
   34.1630   37.8630   23.6760 N   0  0  0  0  0  0  0  0  0  0  0  0
   34.4030   40.0420   22.5520 N   0  0  0  0  0  0  0  0  0  0  0  0
   35.1670   39.2440   26.8570 C   0  0  0  0  0  0  0  0  0  0  0  0
   32.0810   39.1610   28.0100 N   0  0  0  0  0  0  0  0  0  0  0  0
   30.9640   38.4260   27.7520 N   0  0  0  0  0  0  0  0  0  0  0  0
   30.7140   37.7770   28.9230 C   0  0  0  0  0  0  0  0  0  0  0  0
   31.7070   38.1370   29.8740 N   0  0  0  0  0  0  0  0  0  0  0  0
   32.5170   38.9670   29.2980 N   0  0  0  0  0  0  0  0  0  0  0  0
   39.3280   36.7970   17.2990 H   0  0  0  0  0  0  0  0  0  0  0  0
   34.7900   35.3660   24.4820 H   0  0  0  0  0  0  0  0  0  0  0  0
   33.0210   35.3410   24.0390 H   0  0  0  0  0  0  0  0  0  0  0  0
   34.1180   33.9830   23.4910 H   0  0  0  0  0  0  0  0  0  0  0  0
   35.8490   36.5400   14.6960 H   0  0  0  0  0  0  0  0  0  0  0  0
   34.8180   40.0300   20.5040 H   0  0  0  0  0  0  0  0  0  0  0  0
   33.4490   38.1660   26.0360 H   0  0  0  0  0  0  0  0  0  0  0  0
   33.2300   40.8880   27.5300 H   0  0  0  0  0  0  0  0  0  0  0  0
   31.9450   40.4340   26.3080 H   0  0  0  0  0  0  0  0  0  0  0  0
   35.2900   37.9060   19.2020 H   0  0  0  0  0  0  0  0  0  0  0  0
   34.4680   35.6850   16.5760 H   0  0  0  0  0  0  0  0  0  0  0  0
   34.0090   40.9340   24.9030 H   0  0  0  0  0  0  0  0  0  0  0  0
   35.8930   38.6400   26.2670 H   0  0  0  0  0  0  0  0  0  0  0  0
   35.5550   40.2850   26.9530 H   0  0  0  0  0  0  0  0  0  0  0  0
   35.0960   38.8050   27.8800 H   0  0  0  0  0  0  0  0  0  0  0  0
   29.8910   37.0920   29.1200 H   0  0  0  0  0  0  0  0  0  0  0  0
  1  2  2  0  0  0  0
  1 12  1  0  0  0  0
  1 19  1  0  0  0  0
  2 17  1  0  0  0  0
  2 31  1  0  0  0  0
  3 22  1  0  0  0  0
  3 32  1  0  0  0  0
  3 33  1  0  0  0  0
  3 34  1  0  0  0  0
  4 13  1  0  0  0  0
  4 17  2  0  0  0  0
  4 35  1  0  0  0  0
  5 14  2  0  0  0  0
  5 24  1  0  0  0  0
  5 36  1  0  0  0  0
  6  7  1  0  0  0  0
  6 16  1  0  0  0  0
  6 25  1  0  0  0  0
  6 37  1  6  0  0  0
  7 26  1  0  0  0  0
  7 38  1  0  0  0  0
  7 39  1  0  0  0  0
  8 16  1  0  0  0  0
  8 23  1  0  0  0  0
  8 24  2  0  0  0  0
  9 10  1  0  0  0  0
  9 21  2  0  0  0  0
  9 22  1  0  0  0  0
 10 11  2  0  0  0  0
 10 20  1  0  0  0  0
 11 14  1  0  0  0  0
 11 40  1  0  0  0  0
 12 13  2  0  0  0  0
 12 20  1  0  0  0  0
 13 41  1  0  0  0  0
 14 15  1  0  0  0  0
 15 22  1  0  0  0  0
 15 23  2  0  0  0  0
 16 42  1  0  0  0  0
 17 18  1  0  0  0  0
 25 43  1  0  0  0  0
 25 44  1  0  0  0  0
 25 45  1  0  0  0  0
 26 27  1  0  0  0  0
 26 30  1  0  0  0  0
 27 28  2  0  0  0  0
 28 29  1  0  0  0  0
 28 46  1  0  0  0  0
 29 30  2  0  0  0  0
M  END
$$$$
