p38a_2s
 OpenBabel02232411163D
Structure written by MMmdl.
 54 57  0  0  1  0  0  0  0  0999 V2000
   37.8050   36.1940   17.5840 C   0  0  0  0  0  0  0  0  0  0  0  0
   33.7160   34.9480   21.4130 C   0  0  0  0  0  0  0  0  0  0  0  0
   36.9300   35.8010   18.5930 C   0  0  0  0  0  0  0  0  0  0  0  0
   33.4760   39.0410   23.9730 C   0  0  0  0  0  0  0  0  0  0  0  0
   33.9920   37.8070   21.5680 C   0  0  0  0  0  0  0  0  0  0  0  0
   34.4130   37.1240   20.3770 C   0  0  0  0  0  0  0  0  0  0  0  0
   37.2630   36.3110   16.2970 C   0  0  0  0  0  0  0  0  0  0  0  0
   35.9230   36.0480   16.0030 C   0  0  0  0  0  0  0  0  0  0  0  0
   35.0640   35.6540   17.0360 C   0  0  0  0  0  0  0  0  0  0  0  0
   33.4710   37.0740   22.6780 C   0  0  0  0  0  0  0  0  0  0  0  0
   34.1380   39.2130   21.7290 C   0  0  0  0  0  0  0  0  0  0  0  0
   34.3260   35.7750   20.3380 C   0  0  0  0  0  0  0  0  0  0  0  0
   35.5730   35.5140   18.3310 C   0  0  0  0  0  0  0  0  0  0  0  0
   37.3780   35.6830   19.8350 F   0  0  0  0  0  0  0  0  0  0  0  0
   34.7550   34.9340   19.3110 O   0  0  0  0  0  0  0  0  0  0  0  0
   33.8860   39.8390   22.8860 N   0  0  0  0  0  0  0  0  0  0  0  0
   33.5930   33.7430   21.3910 O   0  0  0  0  0  0  0  0  0  0  0  0
   33.2410   35.6860   22.5610 N   0  0  0  0  0  0  0  0  0  0  0  0
   33.2400   37.6810   23.8840 N   0  0  0  0  0  0  0  0  0  0  0  0
   33.2630   39.6830   25.1720 N   0  0  0  0  0  0  0  0  0  0  0  0
   38.8530   36.4400   17.7850 H   0  0  0  0  0  0  0  0  0  0  0  0
   34.8210   37.7190   19.5540 H   0  0  0  0  0  0  0  0  0  0  0  0
   35.5340   36.1600   14.9870 H   0  0  0  0  0  0  0  0  0  0  0  0
   34.0060   35.4680   16.8240 H   0  0  0  0  0  0  0  0  0  0  0  0
   34.4890   39.8340   20.8840 H   0  0  0  0  0  0  0  0  0  0  0  0
   33.4830   40.6990   25.2440 H   0  0  0  0  0  0  0  0  0  0  0  0
   38.0640   36.7220   15.3160 F   0  0  0  0  0  0  0  0  0  0  0  0
   32.1800   39.1150   28.7900 C   0  0  0  0  0  0  0  0  0  0  0  0
   32.1980   39.7330   27.3870 C   0  0  0  0  0  0  0  0  0  0  0  0
   33.1680   38.9560   26.4730 C   0  0  0  0  0  0  0  0  0  0  0  0
   34.5620   38.8530   27.1320 C   0  0  0  0  0  0  0  0  0  0  0  0
   34.4290   38.2670   28.5430 C   0  0  0  0  0  0  0  0  0  0  0  0
   33.5090   39.0320   29.3540 O   0  0  0  0  0  0  0  0  0  0  0  0
   31.7290   38.0950   28.7730 H   0  0  0  0  0  0  0  0  0  0  0  0
   31.6570   39.7790   29.5170 H   0  0  0  0  0  0  0  0  0  0  0  0
   32.5160   40.8020   27.4540 H   0  0  0  0  0  0  0  0  0  0  0  0
   31.1730   39.6950   26.9500 H   0  0  0  0  0  0  0  0  0  0  0  0
   32.7610   37.9220   26.2950 H   0  0  0  0  0  0  0  0  0  0  0  0
   35.2270   38.1940   26.5250 H   0  0  0  0  0  0  0  0  0  0  0  0
   35.0320   39.8660   27.1870 H   0  0  0  0  0  0  0  0  0  0  0  0
   34.0820   37.2080   28.5050 H   0  0  0  0  0  0  0  0  0  0  0  0
   35.3820   38.3630   29.1120 H   0  0  0  0  0  0  0  0  0  0  0  0
   32.5880   34.9230   23.6730 C   0  0  0  0  0  0  0  0  0  0  0  0
   33.1640   33.9670   23.8320 H   0  0  0  0  0  0  0  0  0  0  0  0
   32.6340   35.5230   24.6300 H   0  0  0  0  0  0  0  0  0  0  0  0
   31.1100   34.5870   23.3820 C   0  0  2  0  0  0  0  0  0  0  0  0
   30.3510   35.7490   23.7840 O   0  0  0  0  0  0  0  0  0  0  0  0
   29.3880   35.5830   23.5560 H   0  0  0  0  0  0  0  0  0  0  0  0
   30.6130   33.3810   24.2170 C   0  0  0  0  0  0  0  0  0  0  0  0
   30.5590   33.6370   25.3010 H   0  0  0  0  0  0  0  0  0  0  0  0
   31.2240   32.4640   24.0470 H   0  0  0  0  0  0  0  0  0  0  0  0
   30.9000   34.4130   22.3030 H   0  0  0  0  0  0  0  0  0  0  0  0
   29.2990   32.9890   23.7810 O   0  0  0  0  0  0  0  0  0  0  0  0
   28.7450   33.8250   23.6550 H   0  0  0  0  0  0  0  0  0  0  0  0
  1  3  2  0  0  0  0
  1  7  1  0  0  0  0
  1 21  1  0  0  0  0
  2 12  1  0  0  0  0
  2 17  2  0  0  0  0
  2 18  1  0  0  0  0
  3 13  1  0  0  0  0
  3 14  1  0  0  0  0
  4 16  2  0  0  0  0
  4 19  1  0  0  0  0
  4 20  1  0  0  0  0
  5  6  1  0  0  0  0
  5 10  1  0  0  0  0
  5 11  2  0  0  0  0
  6 12  2  0  0  0  0
  6 22  1  0  0  0  0
  7  8  2  0  0  0  0
  7 27  1  0  0  0  0
  8  9  1  0  0  0  0
  8 23  1  0  0  0  0
  9 13  2  0  0  0  0
  9 24  1  0  0  0  0
 10 18  1  0  0  0  0
 10 19  2  0  0  0  0
 11 16  1  0  0  0  0
 11 25  1  0  0  0  0
 12 15  1  0  0  0  0
 13 15  1  0  0  0  0
 18 43  1  0  0  0  0
 20 26  1  0  0  0  0
 20 30  1  0  0  0  0
 28 29  1  0  0  0  0
 28 33  1  0  0  0  0
 28 34  1  0  0  0  0
 28 35  1  0  0  0  0
 29 30  1  0  0  0  0
 29 36  1  0  0  0  0
 29 37  1  0  0  0  0
 30 31  1  0  0  0  0
 30 38  1  0  0  0  0
 31 32  1  0  0  0  0
 31 39  1  0  0  0  0
 31 40  1  0  0  0  0
 32 33  1  0  0  0  0
 32 41  1  0  0  0  0
 32 42  1  0  0  0  0
 43 44  1  0  0  0  0
 43 45  1  0  0  0  0
 43 46  1  0  0  0  0
 46 47  1  0  0  0  0
 46 49  1  0  0  0  0
 46 52  1  1  0  0  0
 47 48  1  0  0  0  0
 49 50  1  0  0  0  0
 49 51  1  0  0  0  0
 49 53  1  0  0  0  0
 53 54  1  0  0  0  0
M  END
$$$$
