p38a_3fln
 OpenBabel02232411163D
Structure written by MMmdl.
 46 49  0  0  0  0  0  0  0  0999 V2000
   34.2930   38.2640   26.9670 C   0  0  0  0  0  0  0  0  0  0  0  0
   33.7150   37.7900   28.3060 C   0  0  0  0  0  0  0  0  0  0  0  0
   31.4570   38.3210   27.6230 C   0  0  0  0  0  0  0  0  0  0  0  0
   31.9270   38.8140   26.2470 C   0  0  0  0  0  0  0  0  0  0  0  0
   36.3540   36.0000   15.8560 C   0  0  0  0  0  0  0  0  0  0  0  0
   32.3520   37.3260   28.1690 O   0  0  0  0  0  0  0  0  0  0  0  0
   34.5270   35.0530   21.4160 C   0  0  0  0  0  0  0  0  0  0  0  0
   35.6720   35.5430   16.9790 C   0  0  0  0  0  0  0  0  0  0  0  0
   34.0910   39.1820   23.8990 C   0  0  0  0  0  0  0  0  0  0  0  0
   33.3730   39.3400   26.3630 C   0  0  0  0  0  0  0  0  0  0  0  0
   34.7530   37.9160   21.5370 C   0  0  0  0  0  0  0  0  0  0  0  0
   35.1820   37.2270   20.3500 C   0  0  0  0  0  0  0  0  0  0  0  0
   37.6470   36.4970   16.0700 C   0  0  0  0  0  0  0  0  0  0  0  0
   38.2690   36.5110   17.3210 C   0  0  0  0  0  0  0  0  0  0  0  0
   37.5490   36.0790   18.4400 C   0  0  0  0  0  0  0  0  0  0  0  0
   34.3280   37.1820   22.6830 C   0  0  0  0  0  0  0  0  0  0  0  0
   34.7450   39.3320   21.6450 C   0  0  0  0  0  0  0  0  0  0  0  0
   35.1050   35.8760   20.3200 C   0  0  0  0  0  0  0  0  0  0  0  0
   36.2490   35.5980   18.2650 C   0  0  0  0  0  0  0  0  0  0  0  0
   33.7940   35.0290   23.8300 C   0  0  0  0  0  0  0  0  0  0  0  0
   34.4550   35.0270   16.8640 F   0  0  0  0  0  0  0  0  0  0  0  0
   38.2970   37.0130   15.0290 F   0  0  0  0  0  0  0  0  0  0  0  0
   35.4880   35.0200   19.2890 O   0  0  0  0  0  0  0  0  0  0  0  0
   34.4240   39.9740   22.7760 N   0  0  0  0  0  0  0  0  0  0  0  0
   34.3000   33.8640   21.3550 O   0  0  0  0  0  0  0  0  0  0  0  0
   34.2230   35.7830   22.6190 N   0  0  0  0  0  0  0  0  0  0  0  0
   33.9980   37.8070   23.8630 N   0  0  0  0  0  0  0  0  0  0  0  0
   33.8950   39.8750   25.0710 N   0  0  0  0  0  0  0  0  0  0  0  0
   35.3140   38.6860   27.1300 H   0  0  0  0  0  0  0  0  0  0  0  0
   34.3810   37.3930   26.2710 H   0  0  0  0  0  0  0  0  0  0  0  0
   34.2410   36.8750   28.6690 H   0  0  0  0  0  0  0  0  0  0  0  0
   33.7450   38.6040   29.0670 H   0  0  0  0  0  0  0  0  0  0  0  0
   31.3770   39.1650   28.3450 H   0  0  0  0  0  0  0  0  0  0  0  0
   30.4980   37.7580   27.5450 H   0  0  0  0  0  0  0  0  0  0  0  0
   31.8830   37.9720   25.5150 H   0  0  0  0  0  0  0  0  0  0  0  0
   31.2530   39.6280   25.8900 H   0  0  0  0  0  0  0  0  0  0  0  0
   35.8990   35.9960   14.8620 H   0  0  0  0  0  0  0  0  0  0  0  0
   33.3760   40.2430   27.0490 H   0  0  0  0  0  0  0  0  0  0  0  0
   35.5700   37.8230   19.5200 H   0  0  0  0  0  0  0  0  0  0  0  0
   39.2910   36.8840   17.4320 H   0  0  0  0  0  0  0  0  0  0  0  0
   38.0000   36.1430   19.4330 H   0  0  0  0  0  0  0  0  0  0  0  0
   35.0020   39.9510   20.7690 H   0  0  0  0  0  0  0  0  0  0  0  0
   34.5250   35.2060   24.6650 H   0  0  0  0  0  0  0  0  0  0  0  0
   32.7810   35.3810   24.1620 H   0  0  0  0  0  0  0  0  0  0  0  0
   33.7490   33.9300   23.6090 H   0  0  0  0  0  0  0  0  0  0  0  0
   33.8850   40.9160   25.0310 H   0  0  0  0  0  0  0  0  0  0  0  0
  1  2  1  0  0  0  0
  1 10  1  0  0  0  0
  1 29  1  0  0  0  0
  1 30  1  0  0  0  0
  2  6  1  0  0  0  0
  2 31  1  0  0  0  0
  2 32  1  0  0  0  0
  3  4  1  0  0  0  0
  3  6  1  0  0  0  0
  3 33  1  0  0  0  0
  3 34  1  0  0  0  0
  4 10  1  0  0  0  0
  4 35  1  0  0  0  0
  4 36  1  0  0  0  0
  5  8  2  0  0  0  0
  5 13  1  0  0  0  0
  5 37  1  0  0  0  0
  7 18  1  0  0  0  0
  7 25  2  0  0  0  0
  7 26  1  0  0  0  0
  8 19  1  0  0  0  0
  8 21  1  0  0  0  0
  9 24  2  0  0  0  0
  9 27  1  0  0  0  0
  9 28  1  0  0  0  0
 10 28  1  0  0  0  0
 10 38  1  0  0  0  0
 11 12  1  0  0  0  0
 11 16  1  0  0  0  0
 11 17  2  0  0  0  0
 12 18  2  0  0  0  0
 12 39  1  0  0  0  0
 13 14  2  0  0  0  0
 13 22  1  0  0  0  0
 14 15  1  0  0  0  0
 14 40  1  0  0  0  0
 15 19  2  0  0  0  0
 15 41  1  0  0  0  0
 16 26  1  0  0  0  0
 16 27  2  0  0  0  0
 17 24  1  0  0  0  0
 17 42  1  0  0  0  0
 18 23  1  0  0  0  0
 19 23  1  0  0  0  0
 20 26  1  0  0  0  0
 20 43  1  0  0  0  0
 20 44  1  0  0  0  0
 20 45  1  0  0  0  0
 28 46  1  0  0  0  0
M  END
$$$$
