CAT-17d
 OpenBabel02232411143D
Structure written by MMmdl.
 42 45  0  0  1  0  0  0  0  0999 V2000
   11.9620   -2.3590    0.8360 C   0  0  0  0  0  0  0  0  0  0  0  0
   13.3430   -2.0940    0.3810 N   0  0  0  0  0  0  0  0  0  0  0  0
   14.4040   -1.9610    1.2650 C   0  0  0  0  0  0  0  0  0  0  0  0
   14.3690   -2.1640    2.6080 N   0  0  0  0  0  0  0  0  0  0  0  0
   15.5890   -1.6280    0.5680 N   0  3  0  0  0  0  0  0  0  0  0  0
   15.4020   -1.9880   -0.8960 C   0  0  1  0  0  0  0  0  0  0  0  0
   15.7950   -0.8950   -1.8710 C   0  0  0  0  0  0  0  0  0  0  0  0
   16.5230   -1.2250   -3.0230 C   0  0  0  0  0  0  0  0  0  0  0  0
   16.6980   -0.2760   -4.0330 C   0  0  0  0  0  0  0  0  0  0  0  0
   16.1870    1.0130   -3.8870 C   0  0  0  0  0  0  0  0  0  0  0  0
   15.5080    1.3710   -2.7090 C   0  0  0  0  0  0  0  0  0  0  0  0
   14.9640    2.7300   -2.5430 C   0  0  0  0  0  0  0  0  0  0  0  0
   15.1590    3.4470   -1.3520 C   0  0  0  0  0  0  0  0  0  0  0  0
   14.5710    4.7040   -1.2070 C   0  0  0  0  0  0  0  0  0  0  0  0
   13.7960    5.2170   -2.2600 C   0  0  0  0  0  0  0  0  0  0  0  0
   13.6240    4.5490   -3.4330 N   0  0  0  0  0  0  0  0  0  0  0  0
   14.2030    3.3310   -3.5720 C   0  0  0  0  0  0  0  0  0  0  0  0
   15.3130    0.4100   -1.7030 C   0  0  0  0  0  0  0  0  0  0  0  0
   16.1610   -3.2830   -1.0870 C   0  0  0  0  0  0  0  0  0  0  0  0
   15.5560   -4.6450   -0.7680 C   0  0  0  0  0  0  0  0  0  0  0  0
   15.8520   -4.2600   -2.1990 C   0  0  0  0  0  0  0  0  0  0  0  0
   13.8510   -2.1630   -1.0110 C   0  0  0  0  0  0  0  0  0  0  0  0
   13.1170   -2.2770   -1.9380 O   0  0  0  0  0  0  0  0  0  0  0  0
   11.5400   -1.4400    1.3200 H   0  0  0  0  0  0  0  0  0  0  0  0
   11.3250   -2.6390   -0.0460 H   0  0  0  0  0  0  0  0  0  0  0  0
   11.9550   -3.2090    1.5730 H   0  0  0  0  0  0  0  0  0  0  0  0
   13.5310   -1.9510    3.1960 H   0  0  0  0  0  0  0  0  0  0  0  0
   16.4650   -2.0400    1.0050 H   0  0  0  0  0  0  0  0  0  0  0  0
   16.9580   -2.2160   -3.1540 H   0  0  0  0  0  0  0  0  0  0  0  0
   17.2320   -0.5650   -4.9450 H   0  0  0  0  0  0  0  0  0  0  0  0
   16.3260    1.7360   -4.6970 H   0  0  0  0  0  0  0  0  0  0  0  0
   15.7550    3.0170   -0.5400 H   0  0  0  0  0  0  0  0  0  0  0  0
   14.6970    5.2610   -0.2760 H   0  0  0  0  0  0  0  0  0  0  0  0
   13.2790    6.1850   -2.1650 H   0  0  0  0  0  0  0  0  0  0  0  0
   14.0430    2.8110   -4.5310 H   0  0  0  0  0  0  0  0  0  0  0  0
   14.7820    0.6680   -0.7870 H   0  0  0  0  0  0  0  0  0  0  0  0
   17.2270   -3.1440   -0.8130 H   0  0  0  0  0  0  0  0  0  0  0  0
   14.5190   -4.7200   -0.4280 H   0  0  0  0  0  0  0  0  0  0  0  0
   16.2150   -5.3680   -0.2700 H   0  0  0  0  0  0  0  0  0  0  0  0
   15.0160   -4.0750   -2.8840 H   0  0  0  0  0  0  0  0  0  0  0  0
   16.7280   -4.7070   -2.6840 H   0  0  0  0  0  0  0  0  0  0  0  0
   15.2780   -2.0980    3.1530 H   0  0  0  0  0  0  0  0  0  0  0  0
  1  2  1  0  0  0  0
  1 24  1  0  0  0  0
  1 25  1  0  0  0  0
  1 26  1  0  0  0  0
  2  3  1  0  0  0  0
  2 22  1  0  0  0  0
  3  4  1  0  0  0  0
  3  5  2  0  0  0  0
  4 27  1  0  0  0  0
  4 42  1  0  0  0  0
  5  6  1  0  0  0  0
  5 28  1  0  0  0  0
  6  7  1  6  0  0  0
  6 19  1  0  0  0  0
  6 22  1  0  0  0  0
  7  8  2  0  0  0  0
  7 18  1  0  0  0  0
  8  9  1  0  0  0  0
  8 29  1  0  0  0  0
  9 10  2  0  0  0  0
  9 30  1  0  0  0  0
 10 11  1  0  0  0  0
 10 31  1  0  0  0  0
 11 12  1  0  0  0  0
 11 18  2  0  0  0  0
 12 13  2  0  0  0  0
 12 17  1  0  0  0  0
 13 14  1  0  0  0  0
 13 32  1  0  0  0  0
 14 15  2  0  0  0  0
 14 33  1  0  0  0  0
 15 16  1  0  0  0  0
 15 34  1  0  0  0  0
 16 17  2  0  0  0  0
 17 35  1  0  0  0  0
 18 36  1  0  0  0  0
 19 20  1  0  0  0  0
 19 21  1  0  0  0  0
 19 37  1  0  0  0  0
 20 21  1  0  0  0  0
 20 38  1  0  0  0  0
 20 39  1  0  0  0  0
 21 40  1  0  0  0  0
 21 41  1  0  0  0  0
 22 23  2  0  0  0  0
M  CHG  1   5   1
M  END
$$$$
