p38a_3flq
 OpenBabel02232411163D
Structure written by MMmdl.
 47 49  0  0  1  0  0  0  0  0999 V2000
   34.5160   39.0980   24.1120 C   0  0  0  0  0  0  0  0  0  0  0  0
   34.8530   37.8940   21.6550 C   0  0  0  0  0  0  0  0  0  0  0  0
   35.1270   37.2370   20.4050 C   0  0  0  0  0  0  0  0  0  0  0  0
   34.6690   37.1220   22.8430 C   0  0  0  0  0  0  0  0  0  0  0  0
   35.0830   35.8860   20.3600 C   0  0  0  0  0  0  0  0  0  0  0  0
   34.4260   39.0280   26.6550 C   0  0  1  0  0  0  0  0  0  0  0  0
   35.4040   39.7620   27.5780 C   0  0  0  0  0  0  0  0  0  0  0  0
   31.0170   38.4900   28.9800 C   0  0  0  0  0  0  0  0  0  0  0  0
   34.6080   35.7230   22.7690 N   0  0  0  0  0  0  0  0  0  0  0  0
   32.9860   39.0710   27.2010 C   0  0  0  0  0  0  0  0  0  0  0  0
   38.3300   36.9580   15.0890 F   0  0  0  0  0  0  0  0  0  0  0  0
   37.6390   36.4590   16.1120 C   0  0  0  0  0  0  0  0  0  0  0  0
   38.2210   36.4750   17.3820 C   0  0  0  0  0  0  0  0  0  0  0  0
   37.4570   36.0670   18.4820 C   0  0  0  0  0  0  0  0  0  0  0  0
   36.3470   35.9790   15.8600 C   0  0  0  0  0  0  0  0  0  0  0  0
   35.6200   35.5460   16.9640 C   0  0  0  0  0  0  0  0  0  0  0  0
   34.4000   35.0480   16.8140 F   0  0  0  0  0  0  0  0  0  0  0  0
   36.1540   35.6070   18.2680 C   0  0  0  0  0  0  0  0  0  0  0  0
   35.3340   35.0630   19.2630 O   0  0  0  0  0  0  0  0  0  0  0  0
   34.6680   35.0330   21.5060 C   0  0  0  0  0  0  0  0  0  0  0  0
   34.3920   33.8560   21.4460 O   0  0  0  0  0  0  0  0  0  0  0  0
   34.7690   39.3040   21.7870 C   0  0  0  0  0  0  0  0  0  0  0  0
   34.5900   39.9160   22.9680 N   0  0  0  0  0  0  0  0  0  0  0  0
   34.5200   37.7170   24.0730 N   0  0  0  0  0  0  0  0  0  0  0  0
   34.4460   34.9300   24.0200 C   0  0  0  0  0  0  0  0  0  0  0  0
   34.4660   39.7350   25.3320 N   0  0  0  0  0  0  0  0  0  0  0  0
   32.6240   37.9950   28.5480 S   0  0  0  0  0  0  0  0  0  0  0  0
   32.6270   36.5800   28.1170 O   0  0  0  0  0  0  0  0  0  0  0  0
   33.5510   38.1910   29.6870 O   0  0  0  0  0  0  0  0  0  0  0  0
   35.3810   37.8590   19.5410 H   0  0  0  0  0  0  0  0  0  0  0  0
   34.7550   37.9620   26.5030 H   0  0  0  0  0  0  0  0  0  0  0  0
   36.4430   39.6600   27.1980 H   0  0  0  0  0  0  0  0  0  0  0  0
   35.1540   40.8490   27.6340 H   0  0  0  0  0  0  0  0  0  0  0  0
   35.3580   39.3430   28.6110 H   0  0  0  0  0  0  0  0  0  0  0  0
   30.5070   37.7540   29.6580 H   0  0  0  0  0  0  0  0  0  0  0  0
   31.0040   39.4620   29.5390 H   0  0  0  0  0  0  0  0  0  0  0  0
   30.3460   38.6060   28.0930 H   0  0  0  0  0  0  0  0  0  0  0  0
   32.7620   40.1350   27.4980 H   0  0  0  0  0  0  0  0  0  0  0  0
   32.2790   38.8410   26.3560 H   0  0  0  0  0  0  0  0  0  0  0  0
   39.2450   36.8320   17.5220 H   0  0  0  0  0  0  0  0  0  0  0  0
   37.8750   36.1350   19.4880 H   0  0  0  0  0  0  0  0  0  0  0  0
   35.9240   35.9740   14.8530 H   0  0  0  0  0  0  0  0  0  0  0  0
   34.8430   39.9490   20.8950 H   0  0  0  0  0  0  0  0  0  0  0  0
   34.5280   33.8350   23.7950 H   0  0  0  0  0  0  0  0  0  0  0  0
   35.2460   35.2170   24.7560 H   0  0  0  0  0  0  0  0  0  0  0  0
   33.4440   35.1420   24.4810 H   0  0  0  0  0  0  0  0  0  0  0  0
   34.2440   40.7490   25.3670 H   0  0  0  0  0  0  0  0  0  0  0  0
  1 23  2  0  0  0  0
  1 24  1  0  0  0  0
  1 26  1  0  0  0  0
  2  3  1  0  0  0  0
  2  4  1  0  0  0  0
  2 22  2  0  0  0  0
  3  5  2  0  0  0  0
  3 30  1  0  0  0  0
  4  9  1  0  0  0  0
  4 24  2  0  0  0  0
  5 19  1  0  0  0  0
  5 20  1  0  0  0  0
  6  7  1  0  0  0  0
  6 10  1  0  0  0  0
  6 26  1  0  0  0  0
  6 31  1  6  0  0  0
  7 32  1  0  0  0  0
  7 33  1  0  0  0  0
  7 34  1  0  0  0  0
  8 27  1  0  0  0  0
  8 35  1  0  0  0  0
  8 36  1  0  0  0  0
  8 37  1  0  0  0  0
  9 20  1  0  0  0  0
  9 25  1  0  0  0  0
 10 27  1  0  0  0  0
 10 38  1  0  0  0  0
 10 39  1  0  0  0  0
 11 12  1  0  0  0  0
 12 13  2  0  0  0  0
 12 15  1  0  0  0  0
 13 14  1  0  0  0  0
 13 40  1  0  0  0  0
 14 18  2  0  0  0  0
 14 41  1  0  0  0  0
 15 16  2  0  0  0  0
 15 42  1  0  0  0  0
 16 17  1  0  0  0  0
 16 18  1  0  0  0  0
 18 19  1  0  0  0  0
 20 21  2  0  0  0  0
 22 23  1  0  0  0  0
 22 43  1  0  0  0  0
 25 44  1  0  0  0  0
 25 45  1  0  0  0  0
 25 46  1  0  0  0  0
 26 47  1  0  0  0  0
 27 28  2  0  0  0  0
 27 29  2  0  0  0  0
M  END
$$$$
