26.pdb
 OpenBabel02232411163D

 43 46  0  0  0  0  0  0  0  0999 V2000
    3.5980  -50.0730    6.0460 O   0  5  0  0  0  0  0  0  0  0  0  0
    2.9310  -49.1350    6.5060 C   0  0  0  0  0  0  0  0  0  0  0  0
    3.3270  -48.1180    7.0840 O   0  0  0  0  0  0  0  0  0  0  0  0
    1.3960  -49.3210    6.3540 C   0  0  0  0  0  0  0  0  0  0  0  0
    1.0200  -50.6380    6.7010 O   0  0  0  0  0  0  0  0  0  0  0  0
   -0.3640  -50.7050    6.5180 C   0  0  0  0  0  0  0  0  0  0  0  0
   -1.1790  -51.8060    6.7620 C   0  0  0  0  0  0  0  0  0  0  0  0
   -0.8050  -52.7600    7.1320 H   0  0  0  0  0  0  0  0  0  0  0  0
   -2.5420  -51.6280    6.5080 C   0  0  0  0  0  0  0  0  0  0  0  0
   -3.2360  -52.4520    6.6870 H   0  0  0  0  0  0  0  0  0  0  0  0
   -3.0480  -50.4040    6.0300 C   0  0  0  0  0  0  0  0  0  0  0  0
   -4.1200  -50.3110    5.8430 H   0  0  0  0  0  0  0  0  0  0  0  0
   -2.2150  -49.3090    5.7930 C   0  0  0  0  0  0  0  0  0  0  0  0
   -2.6370  -48.3720    5.4280 H   0  0  0  0  0  0  0  0  0  0  0  0
   -0.8480  -49.4480    6.0420 C   0  0  0  0  0  0  0  0  0  0  0  0
    0.3170  -48.5760    5.9550 C   0  0  0  0  0  0  0  0  0  0  0  0
    0.2490  -47.1620    5.5050 C   0  0  0  0  0  0  0  0  0  0  0  0
    1.1230  -46.9210    4.8500 H   0  0  0  0  0  0  0  0  0  0  0  0
   -0.6920  -47.0250    4.9100 H   0  0  0  0  0  0  0  0  0  0  0  0
    0.2370  -46.1560    6.6690 C   0  0  0  0  0  0  0  0  0  0  0  0
    0.2040  -45.1220    6.2540 H   0  0  0  0  0  0  0  0  0  0  0  0
    1.1750  -46.2830    7.2660 H   0  0  0  0  0  0  0  0  0  0  0  0
   -0.9350  -46.3240    7.6300 C   0  0  0  0  0  0  0  0  0  0  0  0
   -0.8090  -45.7010    8.5420 H   0  0  0  0  0  0  0  0  0  0  0  0
   -1.1640  -47.3900    7.8400 H   0  0  0  0  0  0  0  0  0  0  0  0
   -2.1090  -45.7650    6.9270 O   0  0  0  0  0  0  0  0  0  0  0  0
   -3.3020  -45.7840    7.5870 C   0  0  0  0  0  0  0  0  0  0  0  0
   -4.3310  -45.0370    6.8970 C   0  0  0  0  0  0  0  0  0  0  0  0
   -5.6130  -44.9440    7.4990 C   0  0  0  0  0  0  0  0  0  0  0  0
   -5.8540  -45.5870    8.7530 C   0  0  0  0  0  0  0  0  0  0  0  0
   -6.8390  -45.5010    9.2080 H   0  0  0  0  0  0  0  0  0  0  0  0
   -4.8620  -46.3250    9.3510 C   0  0  0  0  0  0  0  0  0  0  0  0
   -5.0640  -46.8550   10.2860 H   0  0  0  0  0  0  0  0  0  0  0  0
   -3.5670  -46.4300    8.7800 C   0  0  0  0  0  0  0  0  0  0  0  0
   -2.8330  -47.0290    9.3070 H   0  0  0  0  0  0  0  0  0  0  0  0
   -6.6470  -44.2450    6.8020 C   0  0  0  0  0  0  0  0  0  0  0  0
   -7.6370  -44.1890    7.2520 H   0  0  0  0  0  0  0  0  0  0  0  0
   -6.4000  -43.6720    5.5770 C   0  0  0  0  0  0  0  0  0  0  0  0
   -7.1890  -43.1510    5.0410 H   0  0  0  0  0  0  0  0  0  0  0  0
   -5.1130  -43.7600    4.9830 C   0  0  0  0  0  0  0  0  0  0  0  0
   -4.9420  -43.2920    4.0160 H   0  0  0  0  0  0  0  0  0  0  0  0
   -4.1050  -44.4390    5.6240 C   0  0  0  0  0  0  0  0  0  0  0  0
   -3.1260  -44.5540    5.1560 H   0  0  0  0  0  0  0  0  0  0  0  0
  1  2  1  0  0  0  0
  2  3  2  0  0  0  0
  4  2  1  0  0  0  0
  4  5  1  0  0  0  0
  6  7  1  0  0  0  0
  6  5  1  0  0  0  0
  7  8  1  0  0  0  0
  9 10  1  0  0  0  0
  9  7  2  0  0  0  0
 11  9  1  0  0  0  0
 12 11  1  0  0  0  0
 13 11  2  0  0  0  0
 13 15  1  0  0  0  0
 14 13  1  0  0  0  0
 15  6  2  0  0  0  0
 16 15  1  0  0  0  0
 16  4  2  0  0  0  0
 17 16  1  0  0  0  0
 17 20  1  0  0  0  0
 18 17  1  0  0  0  0
 19 17  1  0  0  0  0
 20 22  1  0  0  0  0
 20 23  1  0  0  0  0
 21 20  1  0  0  0  0
 23 25  1  0  0  0  0
 23 24  1  0  0  0  0
 26 23  1  0  0  0  0
 26 27  1  0  0  0  0
 27 34  1  0  0  0  0
 28 27  2  0  0  0  0
 28 29  1  0  0  0  0
 29 30  2  0  0  0  0
 30 32  1  0  0  0  0
 30 31  1  0  0  0  0
 32 33  1  0  0  0  0
 34 35  1  0  0  0  0
 34 32  2  0  0  0  0
 36 29  1  0  0  0  0
 36 37  1  0  0  0  0
 38 36  2  0  0  0  0
 39 38  1  0  0  0  0
 40 42  2  0  0  0  0
 40 38  1  0  0  0  0
 41 40  1  0  0  0  0
 42 28  1  0  0  0  0
 43 42  1  0  0  0  0
M  CHG  1   1  -1
M  END
$$$$
