p38a_2t
 OpenBabel02232411163D
Structure written by MMmdl.
 47 50  0  0  0  0  0  0  0  0999 V2000
   36.3650   36.0390   15.8130 C   0  0  0  0  0  0  0  0  0  0  0  0
   34.5160   35.0130   21.3110 C   0  0  0  0  0  0  0  0  0  0  0  0
   35.7180   35.5620   16.9490 C   0  0  0  0  0  0  0  0  0  0  0  0
   33.9760   39.1130   23.8460 C   0  0  0  0  0  0  0  0  0  0  0  0
   34.7350   37.8770   21.4930 C   0  0  0  0  0  0  0  0  0  0  0  0
   35.2220   37.2050   20.3180 C   0  0  0  0  0  0  0  0  0  0  0  0
   37.6540   36.5550   15.9980 C   0  0  0  0  0  0  0  0  0  0  0  0
   38.3050   36.5750   17.2350 C   0  0  0  0  0  0  0  0  0  0  0  0
   37.6200   36.1240   18.3690 C   0  0  0  0  0  0  0  0  0  0  0  0
   34.2240   37.1360   22.5950 C   0  0  0  0  0  0  0  0  0  0  0  0
   34.7540   39.2930   21.6330 C   0  0  0  0  0  0  0  0  0  0  0  0
   35.1490   35.8560   20.2630 C   0  0  0  0  0  0  0  0  0  0  0  0
   36.3250   35.6170   18.2200 C   0  0  0  0  0  0  0  0  0  0  0  0
   34.5090   35.0250   16.8590 F   0  0  0  0  0  0  0  0  0  0  0  0
   35.6130   35.0070   19.2610 O   0  0  0  0  0  0  0  0  0  0  0  0
   34.3930   39.9180   22.7600 N   0  0  0  0  0  0  0  0  0  0  0  0
   34.3570   33.8160   21.2560 O   0  0  0  0  0  0  0  0  0  0  0  0
   34.0740   35.7370   22.4820 N   0  0  0  0  0  0  0  0  0  0  0  0
   33.8660   37.7360   23.7760 N   0  0  0  0  0  0  0  0  0  0  0  0
   33.6950   39.7870   25.0060 N   0  0  0  0  0  0  0  0  0  0  0  0
   35.8840   36.0350   14.8320 H   0  0  0  0  0  0  0  0  0  0  0  0
   35.6510   37.8140   19.5190 H   0  0  0  0  0  0  0  0  0  0  0  0
   39.3220   36.9640   17.3250 H   0  0  0  0  0  0  0  0  0  0  0  0
   38.0920   36.1930   19.3510 H   0  0  0  0  0  0  0  0  0  0  0  0
   35.0700   39.9210   20.7850 H   0  0  0  0  0  0  0  0  0  0  0  0
   33.7510   40.8260   25.0010 H   0  0  0  0  0  0  0  0  0  0  0  0
   38.2730   37.0820   14.9450 F   0  0  0  0  0  0  0  0  0  0  0  0
   33.6220   37.7330   28.2590 C   0  0  0  0  0  0  0  0  0  0  0  0
   34.1890   38.2430   26.9280 C   0  0  0  0  0  0  0  0  0  0  0  0
   33.1850   39.2230   26.2920 C   0  0  0  0  0  0  0  0  0  0  0  0
   31.8000   38.5630   26.1410 C   0  0  0  0  0  0  0  0  0  0  0  0
   31.3440   38.0090   27.4990 C   0  0  0  0  0  0  0  0  0  0  0  0
   32.3250   37.1190   28.0780 O   0  0  0  0  0  0  0  0  0  0  0  0
   33.5310   38.5600   29.0000 H   0  0  0  0  0  0  0  0  0  0  0  0
   34.2290   36.8890   28.6620 H   0  0  0  0  0  0  0  0  0  0  0  0
   34.3700   37.3810   26.2410 H   0  0  0  0  0  0  0  0  0  0  0  0
   35.1610   38.7620   27.1100 H   0  0  0  0  0  0  0  0  0  0  0  0
   33.0820   40.1290   26.9640 H   0  0  0  0  0  0  0  0  0  0  0  0
   31.0580   39.3130   25.7770 H   0  0  0  0  0  0  0  0  0  0  0  0
   31.8460   37.7320   25.3960 H   0  0  0  0  0  0  0  0  0  0  0  0
   31.1380   38.8340   28.2180 H   0  0  0  0  0  0  0  0  0  0  0  0
   30.4580   37.3410   27.3820 H   0  0  0  0  0  0  0  0  0  0  0  0
   33.4980   34.9550   23.6180 C   0  0  0  0  0  0  0  0  0  0  0  0
   32.8050   35.6080   24.2360 H   0  0  0  0  0  0  0  0  0  0  0  0
   32.8750   34.0990   23.2110 H   0  0  0  0  0  0  0  0  0  0  0  0
   34.5750   34.4390   24.4610 C   0  0  0  0  0  0  0  0  0  0  0  0
   35.4410   34.0350   25.1100 N   0  0  0  0  0  0  0  0  0  0  0  0
  1  3  2  0  0  0  0
  1  7  1  0  0  0  0
  1 21  1  0  0  0  0
  2 12  1  0  0  0  0
  2 17  2  0  0  0  0
  2 18  1  0  0  0  0
  3 13  1  0  0  0  0
  3 14  1  0  0  0  0
  4 16  2  0  0  0  0
  4 19  1  0  0  0  0
  4 20  1  0  0  0  0
  5  6  1  0  0  0  0
  5 10  1  0  0  0  0
  5 11  2  0  0  0  0
  6 12  2  0  0  0  0
  6 22  1  0  0  0  0
  7  8  2  0  0  0  0
  7 27  1  0  0  0  0
  8  9  1  0  0  0  0
  8 23  1  0  0  0  0
  9 13  2  0  0  0  0
  9 24  1  0  0  0  0
 10 18  1  0  0  0  0
 10 19  2  0  0  0  0
 11 16  1  0  0  0  0
 11 25  1  0  0  0  0
 12 15  1  0  0  0  0
 13 15  1  0  0  0  0
 18 43  1  0  0  0  0
 20 26  1  0  0  0  0
 20 30  1  0  0  0  0
 28 29  1  0  0  0  0
 28 33  1  0  0  0  0
 28 34  1  0  0  0  0
 28 35  1  0  0  0  0
 29 30  1  0  0  0  0
 29 36  1  0  0  0  0
 29 37  1  0  0  0  0
 30 31  1  0  0  0  0
 30 38  1  0  0  0  0
 31 32  1  0  0  0  0
 31 39  1  0  0  0  0
 31 40  1  0  0  0  0
 32 33  1  0  0  0  0
 32 41  1  0  0  0  0
 32 42  1  0  0  0  0
 43 44  1  0  0  0  0
 43 45  1  0  0  0  0
 43 46  1  0  0  0  0
 46 47  3  0  0  0  0
M  END
$$$$
