18629-1
 OpenBabel02232411163D
Structure written by MMmdl.
 41 42  0  0  0  0  0  0  0  0999 V2000
   23.2030   10.8760   29.0610 C   0  0  0  0  0  0  0  0  0  0  0  0
   23.4750   11.0850   30.5350 C   0  0  0  0  0  0  0  0  0  0  0  0
   22.2080   11.1520   31.2930 O   0  0  0  0  0  0  0  0  0  0  0  0
   21.5620   10.0120   31.6200 C   0  0  0  0  0  0  0  0  0  0  0  0
   22.0330    8.8230   31.1780 N   0  0  0  0  0  0  0  0  0  0  0  0
   21.2990    7.6870   31.4860 C   0  0  0  0  0  0  0  0  0  0  0  0
   20.1420    7.7250   32.2570 C   0  0  0  0  0  0  0  0  0  0  0  0
   19.6630    8.9760   32.7320 C   0  0  0  0  0  0  0  0  0  0  0  0
   18.5110    9.0240   33.4740 N   0  0  0  0  0  0  0  0  0  0  0  0
   20.3830   10.1710   32.4080 C   0  0  0  0  0  0  0  0  0  0  0  0
   19.9850   11.4700   32.7890 C   0  0  0  0  0  0  0  0  0  0  0  0
   19.7100   12.5640   33.0600 N   0  0  0  0  0  0  0  0  0  0  0  0
   21.8690    6.5310   30.9030 N   0  0  0  0  0  0  0  0  0  0  0  0
   21.3170    5.2250   30.8780 C   0  0  0  0  0  0  0  0  0  0  0  0
   20.2730    4.9500   31.4290 O   0  0  0  0  0  0  0  0  0  0  0  0
   22.1330    4.2470   30.0480 C   0  0  0  0  0  0  0  0  0  0  0  0
   23.4830    3.9770   30.6630 C   0  0  0  0  0  0  0  0  0  0  0  0
   23.6150    2.9820   31.6400 C   0  0  0  0  0  0  0  0  0  0  0  0
   24.8490    2.7650   32.2730 C   0  0  0  0  0  0  0  0  0  0  0  0
   24.9860    1.7420   33.3520 C   0  0  0  0  0  0  0  0  0  0  0  0
   25.9630    3.5310   31.8870 C   0  0  0  0  0  0  0  0  0  0  0  0
   25.8390    4.4950   30.8870 C   0  0  0  0  0  0  0  0  0  0  0  0
   24.6030    4.7230   30.2720 C   0  0  0  0  0  0  0  0  0  0  0  0
   22.8460    9.8400   28.8550 H   0  0  0  0  0  0  0  0  0  0  0  0
   22.4450   11.5980   28.6810 H   0  0  0  0  0  0  0  0  0  0  0  0
   24.1490   11.0350   28.4850 H   0  0  0  0  0  0  0  0  0  0  0  0
   23.8640   12.1090   30.7510 H   0  0  0  0  0  0  0  0  0  0  0  0
   24.1240   10.2880   30.9630 H   0  0  0  0  0  0  0  0  0  0  0  0
   19.5860    6.8140   32.4880 H   0  0  0  0  0  0  0  0  0  0  0  0
   18.0140    8.1570   33.7530 H   0  0  0  0  0  0  0  0  0  0  0  0
   18.1200    9.9120   33.7910 H   0  0  0  0  0  0  0  0  0  0  0  0
   22.7700    6.6910   30.4100 H   0  0  0  0  0  0  0  0  0  0  0  0
   21.5630    3.2850   29.9620 H   0  0  0  0  0  0  0  0  0  0  0  0
   22.2570    4.6710   29.0170 H   0  0  0  0  0  0  0  0  0  0  0  0
   22.7590    2.3610   31.9060 H   0  0  0  0  0  0  0  0  0  0  0  0
   25.1770    2.2440   34.3330 H   0  0  0  0  0  0  0  0  0  0  0  0
   24.0700    1.1120   33.4570 H   0  0  0  0  0  0  0  0  0  0  0  0
   25.8480    1.0600   33.1420 H   0  0  0  0  0  0  0  0  0  0  0  0
   26.9310    3.3700   32.3690 H   0  0  0  0  0  0  0  0  0  0  0  0
   26.7120    5.0790   30.5800 H   0  0  0  0  0  0  0  0  0  0  0  0
   24.5360    5.4800   29.4880 H   0  0  0  0  0  0  0  0  0  0  0  0
  1  2  1  0  0  0  0
  1 24  1  0  0  0  0
  1 25  1  0  0  0  0
  1 26  1  0  0  0  0
  2  3  1  0  0  0  0
  2 27  1  0  0  0  0
  2 28  1  0  0  0  0
  3  4  1  0  0  0  0
  4 10  2  0  0  0  0
  4  5  1  0  0  0  0
  5  6  2  0  0  0  0
  6  7  1  0  0  0  0
  6 13  1  0  0  0  0
  7  8  2  0  0  0  0
  7 29  1  0  0  0  0
  8  9  1  0  0  0  0
  8 10  1  0  0  0  0
  9 30  1  0  0  0  0
  9 31  1  0  0  0  0
 10 11  1  0  0  0  0
 11 12  3  0  0  0  0
 13 14  1  0  0  0  0
 13 32  1  0  0  0  0
 14 15  2  0  0  0  0
 14 16  1  0  0  0  0
 16 17  1  0  0  0  0
 16 33  1  0  0  0  0
 16 34  1  0  0  0  0
 17 23  2  0  0  0  0
 17 18  1  0  0  0  0
 18 19  2  0  0  0  0
 18 35  1  0  0  0  0
 19 20  1  0  0  0  0
 19 21  1  0  0  0  0
 20 36  1  0  0  0  0
 20 37  1  0  0  0  0
 20 38  1  0  0  0  0
 21 22  2  0  0  0  0
 21 39  1  0  0  0  0
 22 23  1  0  0  0  0
 22 40  1  0  0  0  0
 23 41  1  0  0  0  0
M  END
$$$$
