p38a_2m
 OpenBabel02232411163D
Structure written by MMmdl.
 50 54  0  0  0  0  0  0  0  0999 V2000
   36.3840   36.0800   15.7630 C   0  0  0  0  0  0  0  0  0  0  0  0
   34.5320   34.9940   21.2700 C   0  0  0  0  0  0  0  0  0  0  0  0
   35.7150   35.5960   16.8830 C   0  0  0  0  0  0  0  0  0  0  0  0
   34.0590   39.0510   23.8750 C   0  0  0  0  0  0  0  0  0  0  0  0
   34.7650   37.8590   21.4890 C   0  0  0  0  0  0  0  0  0  0  0  0
   35.2220   37.2040   20.2930 C   0  0  0  0  0  0  0  0  0  0  0  0
   37.6760   36.5790   15.9750 C   0  0  0  0  0  0  0  0  0  0  0  0
   38.3080   36.5770   17.2210 C   0  0  0  0  0  0  0  0  0  0  0  0
   37.6000   36.1200   18.3390 C   0  0  0  0  0  0  0  0  0  0  0  0
   34.2920   37.0900   22.5930 C   0  0  0  0  0  0  0  0  0  0  0  0
   34.7840   39.2700   21.6550 C   0  0  0  0  0  0  0  0  0  0  0  0
   35.1430   35.8560   20.2200 C   0  0  0  0  0  0  0  0  0  0  0  0
   36.3020   35.6320   18.1650 C   0  0  0  0  0  0  0  0  0  0  0  0
   34.5020   35.0720   16.7690 F   0  0  0  0  0  0  0  0  0  0  0  0
   35.5570   35.0240   19.1820 O   0  0  0  0  0  0  0  0  0  0  0  0
   34.4430   39.8790   22.8000 N   0  0  0  0  0  0  0  0  0  0  0  0
   34.3490   33.8030   21.1660 O   0  0  0  0  0  0  0  0  0  0  0  0
   34.1480   35.6930   22.4710 N   0  0  0  0  0  0  0  0  0  0  0  0
   33.9710   37.6730   23.7900 N   0  0  0  0  0  0  0  0  0  0  0  0
   33.6960   39.6670   25.0500 N   0  0  0  0  0  0  0  0  0  0  0  0
   35.9190   36.0930   14.7750 H   0  0  0  0  0  0  0  0  0  0  0  0
   35.6360   37.8230   19.4930 H   0  0  0  0  0  0  0  0  0  0  0  0
   39.3280   36.9520   17.3330 H   0  0  0  0  0  0  0  0  0  0  0  0
   38.0590   36.1720   19.3290 H   0  0  0  0  0  0  0  0  0  0  0  0
   35.0880   39.9140   20.8140 H   0  0  0  0  0  0  0  0  0  0  0  0
   33.8380   40.6900   25.1580 H   0  0  0  0  0  0  0  0  0  0  0  0
   38.3150   37.1140   14.9370 F   0  0  0  0  0  0  0  0  0  0  0  0
   32.3140   39.0500   28.5590 C   0  0  0  0  0  0  0  0  0  0  0  0
   32.4970   39.7380   27.2010 C   0  0  0  0  0  0  0  0  0  0  0  0
   33.4460   38.9050   26.3120 C   0  0  0  0  0  0  0  0  0  0  0  0
   34.7710   38.6250   27.0550 C   0  0  0  0  0  0  0  0  0  0  0  0
   34.4780   37.9900   28.4190 C   0  0  0  0  0  0  0  0  0  0  0  0
   33.5820   38.8080   29.2080 O   0  0  0  0  0  0  0  0  0  0  0  0
   31.7720   38.0820   28.4440 H   0  0  0  0  0  0  0  0  0  0  0  0
   31.8000   39.7220   29.2840 H   0  0  0  0  0  0  0  0  0  0  0  0
   32.9180   40.7600   27.3580 H   0  0  0  0  0  0  0  0  0  0  0  0
   31.5080   39.8420   26.6950 H   0  0  0  0  0  0  0  0  0  0  0  0
   32.9470   37.9290   26.0500 H   0  0  0  0  0  0  0  0  0  0  0  0
   35.3990   37.9210   26.4560 H   0  0  0  0  0  0  0  0  0  0  0  0
   35.3400   39.5750   27.1900 H   0  0  0  0  0  0  0  0  0  0  0  0
   34.0300   36.9760   28.2990 H   0  0  0  0  0  0  0  0  0  0  0  0
   35.3910   37.9600   29.0560 H   0  0  0  0  0  0  0  0  0  0  0  0
   33.6310   34.9250   23.6240 C   0  0  0  0  0  0  0  0  0  0  0  0
   32.4820   33.9400   23.4370 C   0  0  0  0  0  0  0  0  0  0  0  0
   32.2470   35.2330   24.1890 C   0  0  0  0  0  0  0  0  0  0  0  0
   34.4420   34.6790   24.3360 H   0  0  0  0  0  0  0  0  0  0  0  0
   32.0070   33.8100   22.4570 H   0  0  0  0  0  0  0  0  0  0  0  0
   32.5280   32.9980   24.0060 H   0  0  0  0  0  0  0  0  0  0  0  0
   31.6210   36.0130   23.7380 H   0  0  0  0  0  0  0  0  0  0  0  0
   32.1320   35.2090   25.2850 H   0  0  0  0  0  0  0  0  0  0  0  0
  1  3  2  0  0  0  0
  1  7  1  0  0  0  0
  1 21  1  0  0  0  0
  2 12  1  0  0  0  0
  2 17  2  0  0  0  0
  2 18  1  0  0  0  0
  3 13  1  0  0  0  0
  3 14  1  0  0  0  0
  4 16  2  0  0  0  0
  4 19  1  0  0  0  0
  4 20  1  0  0  0  0
  5  6  1  0  0  0  0
  5 10  1  0  0  0  0
  5 11  2  0  0  0  0
  6 12  2  0  0  0  0
  6 22  1  0  0  0  0
  7  8  2  0  0  0  0
  7 27  1  0  0  0  0
  8  9  1  0  0  0  0
  8 23  1  0  0  0  0
  9 13  2  0  0  0  0
  9 24  1  0  0  0  0
 10 18  1  0  0  0  0
 10 19  2  0  0  0  0
 11 16  1  0  0  0  0
 11 25  1  0  0  0  0
 12 15  1  0  0  0  0
 13 15  1  0  0  0  0
 18 43  1  0  0  0  0
 20 26  1  0  0  0  0
 20 30  1  0  0  0  0
 28 29  1  0  0  0  0
 28 33  1  0  0  0  0
 28 34  1  0  0  0  0
 28 35  1  0  0  0  0
 29 30  1  0  0  0  0
 29 36  1  0  0  0  0
 29 37  1  0  0  0  0
 30 31  1  0  0  0  0
 30 38  1  0  0  0  0
 31 32  1  0  0  0  0
 31 39  1  0  0  0  0
 31 40  1  0  0  0  0
 32 33  1  0  0  0  0
 32 41  1  0  0  0  0
 32 42  1  0  0  0  0
 43 44  1  0  0  0  0
 43 45  1  0  0  0  0
 43 46  1  0  0  0  0
 44 45  1  0  0  0  0
 44 47  1  0  0  0  0
 44 48  1  0  0  0  0
 45 49  1  0  0  0  0
 45 50  1  0  0  0  0
M  END
$$$$
