p38a_3flq
 OpenBabel02232411163D
Structure written by MMmdl.
 47 49  0  0  1  0  0  0  0  0999 V2000
   33.8800   39.1870   23.7460 C   0  0  0  0  0  0  0  0  0  0  0  0
   34.6470   37.9770   21.3900 C   0  0  0  0  0  0  0  0  0  0  0  0
   35.0920   37.3100   20.1950 C   0  0  0  0  0  0  0  0  0  0  0  0
   34.1390   37.2190   22.4850 C   0  0  0  0  0  0  0  0  0  0  0  0
   35.0220   35.9600   20.1390 C   0  0  0  0  0  0  0  0  0  0  0  0
   32.5070   39.4010   25.8870 C   0  0  1  0  0  0  0  0  0  0  0  0
   31.2120   39.1210   25.1140 C   0  0  0  0  0  0  0  0  0  0  0  0
   35.3670   39.2280   27.5720 C   0  0  0  0  0  0  0  0  0  0  0  0
   34.0180   35.8250   22.3850 N   0  0  0  0  0  0  0  0  0  0  0  0
   32.9180   38.1940   26.7400 C   0  0  0  0  0  0  0  0  0  0  0  0
   38.3200   37.1880   14.9170 F   0  0  0  0  0  0  0  0  0  0  0  0
   37.6310   36.6910   15.9400 C   0  0  0  0  0  0  0  0  0  0  0  0
   36.2810   36.3860   15.7440 C   0  0  0  0  0  0  0  0  0  0  0  0
   35.5270   35.9180   16.8260 C   0  0  0  0  0  0  0  0  0  0  0  0
   38.2860   36.5390   17.1690 C   0  0  0  0  0  0  0  0  0  0  0  0
   37.5110   36.0840   18.2330 C   0  0  0  0  0  0  0  0  0  0  0  0
   38.0510   35.9550   19.4370 F   0  0  0  0  0  0  0  0  0  0  0  0
   36.1490   35.7580   18.0670 C   0  0  0  0  0  0  0  0  0  0  0  0
   35.4410   35.1310   19.1040 O   0  0  0  0  0  0  0  0  0  0  0  0
   34.4450   35.1050   21.2140 C   0  0  0  0  0  0  0  0  0  0  0  0
   34.3200   33.9010   21.1640 O   0  0  0  0  0  0  0  0  0  0  0  0
   34.7010   39.3850   21.5560 C   0  0  0  0  0  0  0  0  0  0  0  0
   34.3380   39.9980   22.6950 N   0  0  0  0  0  0  0  0  0  0  0  0
   33.7570   37.8220   23.6610 N   0  0  0  0  0  0  0  0  0  0  0  0
   33.4440   35.0760   23.5380 C   0  0  0  0  0  0  0  0  0  0  0  0
   33.6160   39.8280   24.9590 N   0  0  0  0  0  0  0  0  0  0  0  0
   33.8870   38.5380   28.1650 S   0  0  0  0  0  0  0  0  0  0  0  0
   33.1880   39.4890   29.0610 O   0  0  0  0  0  0  0  0  0  0  0  0
   34.1610   37.2720   28.8910 O   0  0  0  0  0  0  0  0  0  0  0  0
   35.4810   37.9230   19.3800 H   0  0  0  0  0  0  0  0  0  0  0  0
   32.3360   40.3010   26.5510 H   0  0  0  0  0  0  0  0  0  0  0  0
   30.9610   39.9770   24.4530 H   0  0  0  0  0  0  0  0  0  0  0  0
   31.3050   38.1940   24.5020 H   0  0  0  0  0  0  0  0  0  0  0  0
   30.3710   38.9770   25.8300 H   0  0  0  0  0  0  0  0  0  0  0  0
   36.1460   39.3260   28.3720 H   0  0  0  0  0  0  0  0  0  0  0  0
   35.8080   38.6270   26.7360 H   0  0  0  0  0  0  0  0  0  0  0  0
   35.2050   40.2630   27.1620 H   0  0  0  0  0  0  0  0  0  0  0  0
   31.9790   37.6540   27.0510 H   0  0  0  0  0  0  0  0  0  0  0  0
   33.4530   37.4570   26.0710 H   0  0  0  0  0  0  0  0  0  0  0  0
   35.8040   36.5240   14.7710 H   0  0  0  0  0  0  0  0  0  0  0  0
   34.4620   35.6990   16.6950 H   0  0  0  0  0  0  0  0  0  0  0  0
   39.3400   36.8030   17.2970 H   0  0  0  0  0  0  0  0  0  0  0  0
   35.0370   40.0240   20.7240 H   0  0  0  0  0  0  0  0  0  0  0  0
   33.3250   33.9920   23.2780 H   0  0  0  0  0  0  0  0  0  0  0  0
   34.1160   35.1760   24.4320 H   0  0  0  0  0  0  0  0  0  0  0  0
   32.4390   35.5030   23.8060 H   0  0  0  0  0  0  0  0  0  0  0  0
   33.7230   40.8680   24.9430 H   0  0  0  0  0  0  0  0  0  0  0  0
  1 23  2  0  0  0  0
  1 24  1  0  0  0  0
  1 26  1  0  0  0  0
  2  3  1  0  0  0  0
  2  4  1  0  0  0  0
  2 22  2  0  0  0  0
  3  5  2  0  0  0  0
  3 30  1  0  0  0  0
  4  9  1  0  0  0  0
  4 24  2  0  0  0  0
  5 19  1  0  0  0  0
  5 20  1  0  0  0  0
  6  7  1  0  0  0  0
  6 10  1  0  0  0  0
  6 26  1  0  0  0  0
  6 31  1  6  0  0  0
  7 32  1  0  0  0  0
  7 33  1  0  0  0  0
  7 34  1  0  0  0  0
  8 27  1  0  0  0  0
  8 35  1  0  0  0  0
  8 36  1  0  0  0  0
  8 37  1  0  0  0  0
  9 20  1  0  0  0  0
  9 25  1  0  0  0  0
 10 27  1  0  0  0  0
 10 38  1  0  0  0  0
 10 39  1  0  0  0  0
 11 12  1  0  0  0  0
 12 13  2  0  0  0  0
 12 15  1  0  0  0  0
 13 14  1  0  0  0  0
 13 40  1  0  0  0  0
 14 18  2  0  0  0  0
 14 41  1  0  0  0  0
 15 16  2  0  0  0  0
 15 42  1  0  0  0  0
 16 17  1  0  0  0  0
 16 18  1  0  0  0  0
 18 19  1  0  0  0  0
 20 21  2  0  0  0  0
 22 23  1  0  0  0  0
 22 43  1  0  0  0  0
 25 44  1  0  0  0  0
 25 45  1  0  0  0  0
 25 46  1  0  0  0  0
 26 47  1  0  0  0  0
 27 28  2  0  0  0  0
 27 29  2  0  0  0  0
M  END
$$$$
