p38a_3flq
 OpenBabel02232411163D
Structure written by MMmdl.
 47 49  0  0  1  0  0  0  0  0999 V2000
   33.7450   39.1280   24.0320 C   0  0  0  0  0  0  0  0  0  0  0  0
   34.6520   37.9030   21.7230 C   0  0  0  0  0  0  0  0  0  0  0  0
   35.1540   37.2280   20.5530 C   0  0  0  0  0  0  0  0  0  0  0  0
   34.0520   37.1590   22.7820 C   0  0  0  0  0  0  0  0  0  0  0  0
   35.0300   35.8830   20.4790 C   0  0  0  0  0  0  0  0  0  0  0  0
   32.2700   39.4950   26.1310 C   0  0  1  0  0  0  0  0  0  0  0  0
   31.7640   38.0600   26.0900 C   0  0  0  0  0  0  0  0  0  0  0  0
   35.4170   39.5450   27.5680 C   0  0  0  0  0  0  0  0  0  0  0  0
   33.9100   35.7680   22.6760 N   0  0  0  0  0  0  0  0  0  0  0  0
   32.6440   39.9590   27.5570 C   0  0  0  0  0  0  0  0  0  0  0  0
   38.2740   36.8870   15.1580 F   0  0  0  0  0  0  0  0  0  0  0  0
   37.6130   36.4150   16.2120 C   0  0  0  0  0  0  0  0  0  0  0  0
   38.2340   36.4610   17.4640 C   0  0  0  0  0  0  0  0  0  0  0  0
   37.5090   36.0680   18.5950 C   0  0  0  0  0  0  0  0  0  0  0  0
   36.3150   35.9280   16.0110 C   0  0  0  0  0  0  0  0  0  0  0  0
   35.6250   35.5150   17.1470 C   0  0  0  0  0  0  0  0  0  0  0  0
   34.4030   35.0110   17.0470 F   0  0  0  0  0  0  0  0  0  0  0  0
   36.2040   35.5960   18.4310 C   0  0  0  0  0  0  0  0  0  0  0  0
   35.4480   35.0290   19.4650 O   0  0  0  0  0  0  0  0  0  0  0  0
   34.3530   35.0470   21.5130 C   0  0  0  0  0  0  0  0  0  0  0  0
   34.1610   33.8540   21.4280 O   0  0  0  0  0  0  0  0  0  0  0  0
   34.7270   39.3090   21.9000 C   0  0  0  0  0  0  0  0  0  0  0  0
   34.2940   39.9270   23.0110 N   0  0  0  0  0  0  0  0  0  0  0  0
   33.6000   37.7680   23.9300 N   0  0  0  0  0  0  0  0  0  0  0  0
   33.2730   35.0210   23.7970 C   0  0  0  0  0  0  0  0  0  0  0  0
   33.4460   39.7880   25.2260 N   0  0  0  0  0  0  0  0  0  0  0  0
   33.9550   39.1460   28.4150 S   0  0  0  0  0  0  0  0  0  0  0  0
   34.0160   39.6900   29.8010 O   0  0  0  0  0  0  0  0  0  0  0  0
   33.7630   37.6820   28.4710 O   0  0  0  0  0  0  0  0  0  0  0  0
   35.6220   37.8340   19.7730 H   0  0  0  0  0  0  0  0  0  0  0  0
   31.4290   40.1710   25.7790 H   0  0  0  0  0  0  0  0  0  0  0  0
   31.3000   37.8380   25.1020 H   0  0  0  0  0  0  0  0  0  0  0  0
   32.5890   37.3270   26.2640 H   0  0  0  0  0  0  0  0  0  0  0  0
   30.9850   37.9150   26.8750 H   0  0  0  0  0  0  0  0  0  0  0  0
   36.3320   39.3360   28.1770 H   0  0  0  0  0  0  0  0  0  0  0  0
   35.5090   38.9810   26.6020 H   0  0  0  0  0  0  0  0  0  0  0  0
   35.4520   40.6370   27.3000 H   0  0  0  0  0  0  0  0  0  0  0  0
   32.8800   41.0610   27.5150 H   0  0  0  0  0  0  0  0  0  0  0  0
   31.7070   39.8660   28.1740 H   0  0  0  0  0  0  0  0  0  0  0  0
   39.2600   36.8270   17.5630 H   0  0  0  0  0  0  0  0  0  0  0  0
   37.9590   36.1510   19.5860 H   0  0  0  0  0  0  0  0  0  0  0  0
   35.8630   35.9000   15.0150 H   0  0  0  0  0  0  0  0  0  0  0  0
   35.1420   39.9440   21.1010 H   0  0  0  0  0  0  0  0  0  0  0  0
   33.2480   33.9240   23.5700 H   0  0  0  0  0  0  0  0  0  0  0  0
   33.8550   35.1900   24.7440 H   0  0  0  0  0  0  0  0  0  0  0  0
   32.2250   35.3940   23.9570 H   0  0  0  0  0  0  0  0  0  0  0  0
   33.6410   40.8190   25.2090 H   0  0  0  0  0  0  0  0  0  0  0  0
  1 23  2  0  0  0  0
  1 24  1  0  0  0  0
  1 26  1  0  0  0  0
  2  3  1  0  0  0  0
  2  4  1  0  0  0  0
  2 22  2  0  0  0  0
  3  5  2  0  0  0  0
  3 30  1  0  0  0  0
  4  9  1  0  0  0  0
  4 24  2  0  0  0  0
  5 19  1  0  0  0  0
  5 20  1  0  0  0  0
  6  7  1  0  0  0  0
  6 10  1  0  0  0  0
  6 26  1  0  0  0  0
  6 31  1  6  0  0  0
  7 32  1  0  0  0  0
  7 33  1  0  0  0  0
  7 34  1  0  0  0  0
  8 27  1  0  0  0  0
  8 35  1  0  0  0  0
  8 36  1  0  0  0  0
  8 37  1  0  0  0  0
  9 20  1  0  0  0  0
  9 25  1  0  0  0  0
 10 27  1  0  0  0  0
 10 38  1  0  0  0  0
 10 39  1  0  0  0  0
 11 12  1  0  0  0  0
 12 13  2  0  0  0  0
 12 15  1  0  0  0  0
 13 14  1  0  0  0  0
 13 40  1  0  0  0  0
 14 18  2  0  0  0  0
 14 41  1  0  0  0  0
 15 16  2  0  0  0  0
 15 42  1  0  0  0  0
 16 17  1  0  0  0  0
 16 18  1  0  0  0  0
 18 19  1  0  0  0  0
 20 21  2  0  0  0  0
 22 23  1  0  0  0  0
 22 43  1  0  0  0  0
 25 44  1  0  0  0  0
 25 45  1  0  0  0  0
 25 46  1  0  0  0  0
 26 47  1  0  0  0  0
 27 28  2  0  0  0  0
 27 29  2  0  0  0  0
M  END
$$$$
