18659-1
                    3D
 Schrodinger Suite 2022-3.
 50 51  0  0  1  0  0  0  0  0999 V2000
   25.7730    4.7640   30.7620 C   0  0  0  0  0  0  0  0  0  0  0  0
   24.4890    5.0010   30.2550 C   0  0  0  0  0  0  0  0  0  0  0  0
   23.4050    4.1360   30.5370 C   0  0  0  0  0  0  0  0  0  0  0  0
   23.6410    3.0090   31.3310 C   0  0  0  0  0  0  0  0  0  0  0  0
   24.9260    2.7800   31.8440 C   0  0  0  0  0  0  0  0  0  0  0  0
   25.9970    3.6530   31.5680 C   0  0  0  0  0  0  0  0  0  0  0  0
   22.0390    4.4050   29.9760 C   0  0  0  0  0  0  0  0  0  0  0  0
   21.2290    5.3840   30.8140 C   0  0  0  0  0  0  0  0  0  0  0  0
   21.7870    6.6850   30.8450 N   0  0  0  0  0  0  0  0  0  0  0  0
   21.2280    7.8360   31.4360 C   0  0  0  0  0  0  0  0  0  0  0  0
   20.1770    5.1080   31.3510 O   0  0  0  0  0  0  0  0  0  0  0  0
   21.9350    8.9850   31.0980 N   0  0  0  0  0  0  0  0  0  0  0  0
   21.4700   10.1610   31.5740 C   0  0  0  0  0  0  0  0  0  0  0  0
   20.3130   10.3070   32.3970 C   0  0  0  0  0  0  0  0  0  0  0  0
   19.6190    9.1030   32.7400 C   0  0  0  0  0  0  0  0  0  0  0  0
   20.0990    7.8600   32.2500 C   0  0  0  0  0  0  0  0  0  0  0  0
   25.2930    1.7290   32.6580 O   0  0  0  0  0  0  0  0  0  0  0  0
   24.3290    0.6680   32.8760 C   0  0  0  0  0  0  0  0  0  0  0  0
   24.1510    6.0620   29.4180 O   0  0  0  0  0  0  0  0  0  0  0  0
   25.1010    7.1560   29.3080 C   0  0  0  0  0  0  0  0  0  0  0  0
   18.4860    9.1360   33.5130 N   0  0  0  0  0  0  0  0  0  0  0  0
   19.9000   11.6010   32.7760 C   0  0  0  0  0  0  0  0  0  0  0  0
   22.0860   11.3170   31.2310 O   0  0  0  0  0  0  0  0  0  0  0  0
   23.1880   11.2760   30.2470 C   0  0  0  0  0  0  0  0  0  0  0  0
   23.8780   12.6380   30.3930 C   0  0  0  0  0  0  0  0  0  0  0  0
   19.6020   12.6900   33.0420 N   0  0  0  0  0  0  0  0  0  0  0  0
   26.6080    5.4310   30.5310 H   0  0  0  0  0  0  0  0  0  0  0  0
   22.8260    2.3150   31.5430 H   0  0  0  0  0  0  0  0  0  0  0  0
   19.5620    6.9420   32.5000 H   0  0  0  0  0  0  0  0  0  0  0  0
   21.4670    3.4430   29.9000 H   0  0  0  0  0  0  0  0  0  0  0  0
   22.1460    4.8370   28.9430 H   0  0  0  0  0  0  0  0  0  0  0  0
   22.6910    6.8430   30.3280 H   0  0  0  0  0  0  0  0  0  0  0  0
   24.0270    0.2190   31.9050 H   0  0  0  0  0  0  0  0  0  0  0  0
   24.9260   -0.0550   33.4820 H   0  0  0  0  0  0  0  0  0  0  0  0
   23.4610    1.0510   33.4530 H   0  0  0  0  0  0  0  0  0  0  0  0
   24.5030    7.9170   28.7570 H   0  0  0  0  0  0  0  0  0  0  0  0
   25.3930    7.5260   30.3140 H   0  0  0  0  0  0  0  0  0  0  0  0
   25.9800    6.8200   28.7170 H   0  0  0  0  0  0  0  0  0  0  0  0
   17.9920    8.2610   33.7760 H   0  0  0  0  0  0  0  0  0  0  0  0
   18.0880   10.0190   33.8330 H   0  0  0  0  0  0  0  0  0  0  0  0
   22.7180   11.1360   29.2490 H   0  0  0  0  0  0  0  0  0  0  0  0
   23.8870   10.4450   30.5010 H   0  0  0  0  0  0  0  0  0  0  0  0
   23.1880   13.7040   29.7230 O   0  0  0  0  0  0  0  0  0  0  0  0
   24.0290   12.8910   31.4650 H   0  0  0  0  0  0  0  0  0  0  0  0
   24.8500   12.6080   29.8340 H   0  0  0  0  0  0  0  0  0  0  0  0
   21.9660   14.1340   30.3710 C   0  0  0  0  0  0  0  0  0  0  0  0
   22.2020   14.5290   31.3810 H   0  0  0  0  0  0  0  0  0  0  0  0
   21.6180   14.9360   29.6840 H   0  0  0  0  0  0  0  0  0  0  0  0
   21.2590   13.2780   30.4140 H   0  0  0  0  0  0  0  0  0  0  0  0
   26.9940    3.4570   31.9730 H   0  0  0  0  0  0  0  0  0  0  0  0
  1  2  1  0  0  0  0
  1  6  2  0  0  0  0
  1 27  1  0  0  0  0
  2  3  2  0  0  0  0
  2 19  1  0  0  0  0
  3  4  1  0  0  0  0
  3  7  1  0  0  0  0
  4  5  2  0  0  0  0
  4 28  1  0  0  0  0
  5  6  1  0  0  0  0
  5 17  1  0  0  0  0
  6 50  1  0  0  0  0
  7  8  1  0  0  0  0
  7 30  1  0  0  0  0
  7 31  1  0  0  0  0
  8  9  1  0  0  0  0
  8 11  2  0  0  0  0
  9 10  1  0  0  0  0
  9 32  1  0  0  0  0
 10 12  1  0  0  0  0
 10 16  2  0  0  0  0
 12 13  2  0  0  0  0
 13 14  1  0  0  0  0
 13 23  1  0  0  0  0
 14 15  2  0  0  0  0
 14 22  1  0  0  0  0
 15 16  1  0  0  0  0
 15 21  1  0  0  0  0
 16 29  1  0  0  0  0
 17 18  1  0  0  0  0
 18 33  1  0  0  0  0
 18 34  1  0  0  0  0
 18 35  1  0  0  0  0
 19 20  1  0  0  0  0
 20 36  1  0  0  0  0
 20 37  1  0  0  0  0
 20 38  1  0  0  0  0
 21 39  1  0  0  0  0
 21 40  1  0  0  0  0
 22 26  3  0  0  0  0
 23 24  1  0  0  0  0
 24 25  1  0  0  0  0
 24 41  1  0  0  0  0
 24 42  1  0  0  0  0
 25 43  1  0  0  0  0
 25 44  1  0  0  0  0
 25 45  1  0  0  0  0
 43 46  1  0  0  0  0
 46 47  1  0  0  0  0
 46 48  1  0  0  0  0
 46 49  1  0  0  0  0
M  END
$$$$
