1d
 OpenBabel02232411173D

 52 54  0  0  1  0  0  0  0  0999 V2000
   18.2500  -13.0910   21.5280 N   0  0  0  0  0  0  0  0  0  0  0  0
   17.9930  -11.7570   20.9030 C   0  0  2  0  0  0  0  0  0  0  0  0
   17.3490  -13.6660   22.3860 C   0  0  0  0  0  0  0  0  0  0  0  0
   16.3060  -13.0930   22.6920 O   0  0  0  0  0  0  0  0  0  0  0  0
   16.5770  -11.6900   20.2710 C   0  0  0  0  0  0  0  0  0  0  0  0
   16.0980  -12.5860   19.5900 O   0  0  0  0  0  0  0  0  0  0  0  0
   19.0810  -11.5930   19.8240 C   0  0  0  0  0  0  0  0  0  0  0  0
   17.6960  -15.0650   22.9740 C   0  0  2  0  0  0  0  0  0  0  0  0
   15.9280  -10.4870   20.4840 N   0  0  0  0  0  0  0  0  0  0  0  0
   20.1630  -12.6480   20.1120 C   0  0  0  0  0  0  0  0  0  0  0  0
   16.4230  -15.9300   22.9430 N   0  3  0  0  0  0  0  0  0  0  0  0
   18.1800  -14.9690   24.4340 C   0  0  0  0  0  0  0  0  0  0  0  0
   14.5530  -10.2030   20.0070 C   0  0  0  0  0  0  0  0  0  0  0  0
   19.5200  -13.7050   21.0290 C   0  0  0  0  0  0  0  0  0  0  0  0
   19.6200  -14.5330   24.5480 C   0  0  0  0  0  0  0  0  0  0  0  0
   13.4860  -10.8830   20.8290 C   0  0  0  0  0  0  0  0  0  0  0  0
   20.6500  -15.3470   24.0500 C   0  0  0  0  0  0  0  0  0  0  0  0
   13.0220  -12.1520   20.4540 C   0  0  0  0  0  0  0  0  0  0  0  0
   21.9840  -14.9620   24.2050 C   0  0  0  0  0  0  0  0  0  0  0  0
   12.0130  -12.7760   21.1920 C   0  0  0  0  0  0  0  0  0  0  0  0
   22.3030  -13.7570   24.8440 C   0  0  0  0  0  0  0  0  0  0  0  0
   11.4420  -12.1210   22.2870 C   0  0  0  0  0  0  0  0  0  0  0  0
   21.2790  -12.9480   25.3420 C   0  0  0  0  0  0  0  0  0  0  0  0
   11.9140  -10.8600   22.6470 C   0  0  0  0  0  0  0  0  0  0  0  0
   19.9440  -13.3430   25.2100 C   0  0  0  0  0  0  0  0  0  0  0  0
   12.9350  -10.2300   21.9440 C   0  0  0  0  0  0  0  0  0  0  0  0
   18.1190  -10.9700   21.6970 H   0  0  0  0  0  0  0  0  0  0  0  0
   18.6650  -11.7520   18.8020 H   0  0  0  0  0  0  0  0  0  0  0  0
   19.5090  -10.5720   19.8940 H   0  0  0  0  0  0  0  0  0  0  0  0
   18.4610  -15.6220   22.3580 H   0  0  0  0  0  0  0  0  0  0  0  0
   16.3670   -9.7630   21.0830 H   0  0  0  0  0  0  0  0  0  0  0  0
   20.5120  -13.1260   19.1650 H   0  0  0  0  0  0  0  0  0  0  0  0
   21.0390  -12.1840   20.6190 H   0  0  0  0  0  0  0  0  0  0  0  0
   16.6540  -16.9010   23.3120 H   0  0  0  0  0  0  0  0  0  0  0  0
   15.6690  -15.4860   23.5600 H   0  0  0  0  0  0  0  0  0  0  0  0
   16.0670  -16.0360   21.9540 H   0  0  0  0  0  0  0  0  0  0  0  0
   17.5100  -14.2800   25.0090 H   0  0  0  0  0  0  0  0  0  0  0  0
   18.1080  -15.9900   24.9080 H   0  0  0  0  0  0  0  0  0  0  0  0
   14.4280   -9.0850   20.0430 H   0  0  0  0  0  0  0  0  0  0  0  0
   14.4730  -10.5350   18.9320 H   0  0  0  0  0  0  0  0  0  0  0  0
   20.1900  -13.9440   21.8930 H   0  0  0  0  0  0  0  0  0  0  0  0
   19.2940  -14.6390   20.4520 H   0  0  0  0  0  0  0  0  0  0  0  0
   20.4080  -16.2880   23.5500 H   0  0  0  0  0  0  0  0  0  0  0  0
   13.4370  -12.6620   19.5800 H   0  0  0  0  0  0  0  0  0  0  0  0
   22.7720  -15.6190   23.8250 H   0  0  0  0  0  0  0  0  0  0  0  0
   11.6670  -13.7760   20.9130 H   0  0  0  0  0  0  0  0  0  0  0  0
   23.3500  -13.4660   24.9570 H   0  0  0  0  0  0  0  0  0  0  0  0
   21.4950  -12.0010   25.8400 H   0  0  0  0  0  0  0  0  0  0  0  0
   10.9900   -9.9280   24.2950 I   0  0  0  0  0  0  0  0  0  0  0  0
   19.1570  -12.7340   25.6450 H   0  0  0  0  0  0  0  0  0  0  0  0
   13.2960   -9.2400   22.2390 H   0  0  0  0  0  0  0  0  0  0  0  0
   10.6200  -12.5920   22.8360 H   0  0  0  0  0  0  0  0  0  0  0  0
  1  2  1  0  0  0  0
  1 14  1  0  0  0  0
  1  3  1  0  0  0  0
  2  5  1  0  0  0  0
  2  7  1  0  0  0  0
  2 27  1  1  0  0  0
  3  8  1  0  0  0  0
  3  4  2  0  0  0  0
  5  6  2  0  0  0  0
  5  9  1  0  0  0  0
  7 10  1  0  0  0  0
  7 28  1  0  0  0  0
  7 29  1  0  0  0  0
  8 11  1  0  0  0  0
  8 12  1  0  0  0  0
  8 30  1  6  0  0  0
  9 13  1  0  0  0  0
  9 31  1  0  0  0  0
 10 14  1  0  0  0  0
 10 32  1  0  0  0  0
 10 33  1  0  0  0  0
 11 34  1  0  0  0  0
 11 35  1  0  0  0  0
 11 36  1  0  0  0  0
 12 15  1  0  0  0  0
 12 37  1  0  0  0  0
 12 38  1  0  0  0  0
 13 16  1  0  0  0  0
 13 39  1  0  0  0  0
 13 40  1  0  0  0  0
 14 41  1  0  0  0  0
 14 42  1  0  0  0  0
 15 17  2  0  0  0  0
 15 25  1  0  0  0  0
 16 18  2  0  0  0  0
 16 26  1  0  0  0  0
 17 19  1  0  0  0  0
 17 43  1  0  0  0  0
 18 20  1  0  0  0  0
 18 44  1  0  0  0  0
 19 21  2  0  0  0  0
 19 45  1  0  0  0  0
 20 22  2  0  0  0  0
 20 46  1  0  0  0  0
 21 23  1  0  0  0  0
 21 47  1  0  0  0  0
 22 24  1  0  0  0  0
 22 52  1  0  0  0  0
 23 25  2  0  0  0  0
 23 48  1  0  0  0  0
 24 26  2  0  0  0  0
 24 49  1  0  0  0  0
 25 50  1  0  0  0  0
 26 51  1  0  0  0  0
M  CHG  1  11   1
M  END
$$$$
