18637-1
 OpenBabel02232411163D
Structure written by MMmdl.
 53 54  0  0  0  0  0  0  0  0999 V2000
   24.4660   10.8920   30.7630 C   0  0  0  0  0  0  0  0  0  0  0  0
   23.1350   11.2630   30.1460 C   0  0  0  0  0  0  0  0  0  0  0  0
   22.0710   11.3100   31.1700 O   0  0  0  0  0  0  0  0  0  0  0  0
   21.4700   10.1610   31.5570 C   0  0  0  0  0  0  0  0  0  0  0  0
   21.9310    8.9740   31.1010 N   0  0  0  0  0  0  0  0  0  0  0  0
   21.2140    7.8340   31.4450 C   0  0  0  0  0  0  0  0  0  0  0  0
   20.0830    7.8730   32.2540 C   0  0  0  0  0  0  0  0  0  0  0  0
   19.6160    9.1230   32.7390 C   0  0  0  0  0  0  0  0  0  0  0  0
   18.4860    9.1660   33.5160 N   0  0  0  0  0  0  0  0  0  0  0  0
   20.3200   10.3190   32.3870 C   0  0  0  0  0  0  0  0  0  0  0  0
   19.9150   11.6170   32.7600 C   0  0  0  0  0  0  0  0  0  0  0  0
   19.6290   12.7110   33.0210 N   0  0  0  0  0  0  0  0  0  0  0  0
   21.7670    6.6770   30.8590 N   0  0  0  0  0  0  0  0  0  0  0  0
   21.1740    5.3920   30.7880 C   0  0  0  0  0  0  0  0  0  0  0  0
   20.1090    5.1330   31.3060 O   0  0  0  0  0  0  0  0  0  0  0  0
   21.9770    4.4120   29.9420 C   0  0  0  0  0  0  0  0  0  0  0  0
   23.3070    4.0840   30.5480 C   0  0  0  0  0  0  0  0  0  0  0  0
   24.4390    4.9020   30.3280 C   0  0  0  0  0  0  0  0  0  0  0  0
   24.1780    5.9850   29.5060 O   0  0  0  0  0  0  0  0  0  0  0  0
   25.1780    7.0340   29.3930 C   0  0  0  0  0  0  0  0  0  0  0  0
   25.6930    4.6170   30.8820 C   0  0  0  0  0  0  0  0  0  0  0  0
   25.8460    3.4790   31.6800 C   0  0  0  0  0  0  0  0  0  0  0  0
   24.7020    2.6580   31.9220 C   0  0  0  0  0  0  0  0  0  0  0  0
   23.4650    2.9490   31.3540 C   0  0  0  0  0  0  0  0  0  0  0  0
   24.9310    1.6250   32.8220 O   0  0  0  0  0  0  0  0  0  0  0  0
   24.1940    0.3940   32.6030 C   0  0  0  0  0  0  0  0  0  0  0  0
   27.0760    3.1120   32.2940 N   0  0  0  0  0  0  0  0  0  0  0  0
   28.3710    3.5000   31.8680 C   0  0  0  0  0  0  0  0  0  0  0  0
   28.5280    4.2350   30.9080 O   0  0  0  0  0  0  0  0  0  0  0  0
   29.4770    2.9260   32.7000 C   0  0  0  0  0  0  0  0  0  0  0  0
   24.4310    9.8780   31.2260 H   0  0  0  0  0  0  0  0  0  0  0  0
   24.7660   11.6310   31.5370 H   0  0  0  0  0  0  0  0  0  0  0  0
   25.2500   10.8760   29.9650 H   0  0  0  0  0  0  0  0  0  0  0  0
   23.1080   12.3270   29.8070 H   0  0  0  0  0  0  0  0  0  0  0  0
   22.8360   10.5620   29.3330 H   0  0  0  0  0  0  0  0  0  0  0  0
   19.5360    6.9610   32.5050 H   0  0  0  0  0  0  0  0  0  0  0  0
   18.0870   10.0520   33.8250 H   0  0  0  0  0  0  0  0  0  0  0  0
   17.9770    8.2970   33.7680 H   0  0  0  0  0  0  0  0  0  0  0  0
   22.6780    6.8250   30.3580 H   0  0  0  0  0  0  0  0  0  0  0  0
   21.3780    3.4740   29.8170 H   0  0  0  0  0  0  0  0  0  0  0  0
   22.1320    4.8700   28.9270 H   0  0  0  0  0  0  0  0  0  0  0  0
   26.0400    6.6560   28.8060 H   0  0  0  0  0  0  0  0  0  0  0  0
   25.4750    7.4000   30.3990 H   0  0  0  0  0  0  0  0  0  0  0  0
   24.6100    7.8140   28.8330 H   0  0  0  0  0  0  0  0  0  0  0  0
   26.5510    5.2690   30.6880 H   0  0  0  0  0  0  0  0  0  0  0  0
   22.6170    2.2840   31.5380 H   0  0  0  0  0  0  0  0  0  0  0  0
   24.7600   -0.3240   33.2420 H   0  0  0  0  0  0  0  0  0  0  0  0
   23.1520    0.5210   32.9690 H   0  0  0  0  0  0  0  0  0  0  0  0
   24.2330    0.0970   31.5340 H   0  0  0  0  0  0  0  0  0  0  0  0
   27.0100    2.3690   33.0150 H   0  0  0  0  0  0  0  0  0  0  0  0
   29.5210    1.8100   32.6070 H   0  0  0  0  0  0  0  0  0  0  0  0
   30.4710    3.3300   32.3780 H   0  0  0  0  0  0  0  0  0  0  0  0
   29.3500    3.1700   33.7860 H   0  0  0  0  0  0  0  0  0  0  0  0
  1  2  1  0  0  0  0
  1 31  1  0  0  0  0
  1 32  1  0  0  0  0
  1 33  1  0  0  0  0
  2  3  1  0  0  0  0
  2 34  1  0  0  0  0
  2 35  1  0  0  0  0
  3  4  1  0  0  0  0
  4 10  2  0  0  0  0
  4  5  1  0  0  0  0
  5  6  2  0  0  0  0
  6  7  1  0  0  0  0
  6 13  1  0  0  0  0
  7  8  2  0  0  0  0
  7 36  1  0  0  0  0
  8  9  1  0  0  0  0
  8 10  1  0  0  0  0
  9 37  1  0  0  0  0
  9 38  1  0  0  0  0
 10 11  1  0  0  0  0
 11 12  3  0  0  0  0
 13 14  1  0  0  0  0
 13 39  1  0  0  0  0
 14 15  2  0  0  0  0
 14 16  1  0  0  0  0
 16 17  1  0  0  0  0
 16 40  1  0  0  0  0
 16 41  1  0  0  0  0
 17 24  2  0  0  0  0
 17 18  1  0  0  0  0
 18 19  1  0  0  0  0
 18 21  2  0  0  0  0
 19 20  1  0  0  0  0
 20 42  1  0  0  0  0
 20 43  1  0  0  0  0
 20 44  1  0  0  0  0
 21 22  1  0  0  0  0
 21 45  1  0  0  0  0
 22 23  2  0  0  0  0
 22 27  1  0  0  0  0
 23 24  1  0  0  0  0
 23 25  1  0  0  0  0
 24 46  1  0  0  0  0
 25 26  1  0  0  0  0
 26 47  1  0  0  0  0
 26 48  1  0  0  0  0
 26 49  1  0  0  0  0
 27 28  1  0  0  0  0
 27 50  1  0  0  0  0
 28 29  2  0  0  0  0
 28 30  1  0  0  0  0
 30 51  1  0  0  0  0
 30 52  1  0  0  0  0
 30 53  1  0  0  0  0
M  END
$$$$
