p38a_3flq
 OpenBabel02232411163D
Structure written by MMmdl.
 47 49  0  0  1  0  0  0  0  0999 V2000
   33.7040   39.1320   24.0240 C   0  0  0  0  0  0  0  0  0  0  0  0
   34.6140   37.8940   21.7240 C   0  0  0  0  0  0  0  0  0  0  0  0
   35.1250   37.2130   20.5610 C   0  0  0  0  0  0  0  0  0  0  0  0
   33.9930   37.1600   22.7760 C   0  0  0  0  0  0  0  0  0  0  0  0
   34.9970   35.8670   20.4930 C   0  0  0  0  0  0  0  0  0  0  0  0
   32.2580   39.5100   26.1430 C   0  0  1  0  0  0  0  0  0  0  0  0
   31.7490   38.0760   26.1240 C   0  0  0  0  0  0  0  0  0  0  0  0
   35.4540   39.6940   27.5220 C   0  0  0  0  0  0  0  0  0  0  0  0
   33.8370   35.7690   22.6700 N   0  0  0  0  0  0  0  0  0  0  0  0
   32.6660   39.9800   27.5590 C   0  0  0  0  0  0  0  0  0  0  0  0
   38.3010   36.8520   15.2100 F   0  0  0  0  0  0  0  0  0  0  0  0
   37.6290   36.3790   16.2570 C   0  0  0  0  0  0  0  0  0  0  0  0
   38.2340   36.4300   17.5160 C   0  0  0  0  0  0  0  0  0  0  0  0
   37.4960   36.0360   18.6370 C   0  0  0  0  0  0  0  0  0  0  0  0
   36.3350   35.8870   16.0390 C   0  0  0  0  0  0  0  0  0  0  0  0
   35.6320   35.4750   17.1680 C   0  0  0  0  0  0  0  0  0  0  0  0
   34.4130   34.9650   17.0530 F   0  0  0  0  0  0  0  0  0  0  0  0
   36.1920   35.5690   18.4590 C   0  0  0  0  0  0  0  0  0  0  0  0
   35.4210   35.0080   19.4860 O   0  0  0  0  0  0  0  0  0  0  0  0
   34.3100   35.0390   21.5250 C   0  0  0  0  0  0  0  0  0  0  0  0
   34.1330   33.8430   21.4540 O   0  0  0  0  0  0  0  0  0  0  0  0
   34.7030   39.3000   21.8980 C   0  0  0  0  0  0  0  0  0  0  0  0
   34.2690   39.9240   23.0050 N   0  0  0  0  0  0  0  0  0  0  0  0
   33.5360   37.7750   23.9190 N   0  0  0  0  0  0  0  0  0  0  0  0
   33.1560   35.0340   23.7730 C   0  0  0  0  0  0  0  0  0  0  0  0
   33.4150   39.7990   25.2160 N   0  0  0  0  0  0  0  0  0  0  0  0
   34.0210   39.1880   28.3650 S   0  0  0  0  0  0  0  0  0  0  0  0
   34.0780   39.6670   29.7750 O   0  0  0  0  0  0  0  0  0  0  0  0
   33.8970   37.7170   28.3480 O   0  0  0  0  0  0  0  0  0  0  0  0
   35.6010   37.8150   19.7830 H   0  0  0  0  0  0  0  0  0  0  0  0
   31.4110   40.1870   25.8070 H   0  0  0  0  0  0  0  0  0  0  0  0
   31.2900   37.8360   25.1380 H   0  0  0  0  0  0  0  0  0  0  0  0
   32.5710   37.3460   26.3200 H   0  0  0  0  0  0  0  0  0  0  0  0
   30.9620   37.9520   26.9060 H   0  0  0  0  0  0  0  0  0  0  0  0
   36.3830   39.5250   28.1220 H   0  0  0  0  0  0  0  0  0  0  0  0
   35.5750   39.1610   26.5420 H   0  0  0  0  0  0  0  0  0  0  0  0
   35.4260   40.7930   27.2800 H   0  0  0  0  0  0  0  0  0  0  0  0
   32.8770   41.0870   27.5140 H   0  0  0  0  0  0  0  0  0  0  0  0
   31.7510   39.8670   28.2060 H   0  0  0  0  0  0  0  0  0  0  0  0
   39.2580   36.7990   17.6270 H   0  0  0  0  0  0  0  0  0  0  0  0
   37.9330   36.1200   19.6350 H   0  0  0  0  0  0  0  0  0  0  0  0
   35.8960   35.8550   15.0380 H   0  0  0  0  0  0  0  0  0  0  0  0
   35.1300   39.9300   21.1010 H   0  0  0  0  0  0  0  0  0  0  0  0
   33.1140   33.9380   23.5430 H   0  0  0  0  0  0  0  0  0  0  0  0
   33.7160   35.1890   24.7360 H   0  0  0  0  0  0  0  0  0  0  0  0
   32.1120   35.4270   23.9040 H   0  0  0  0  0  0  0  0  0  0  0  0
   33.6070   40.8320   25.1900 H   0  0  0  0  0  0  0  0  0  0  0  0
  1 23  2  0  0  0  0
  1 24  1  0  0  0  0
  1 26  1  0  0  0  0
  2  3  1  0  0  0  0
  2  4  1  0  0  0  0
  2 22  2  0  0  0  0
  3  5  2  0  0  0  0
  3 30  1  0  0  0  0
  4  9  1  0  0  0  0
  4 24  2  0  0  0  0
  5 19  1  0  0  0  0
  5 20  1  0  0  0  0
  6  7  1  0  0  0  0
  6 10  1  0  0  0  0
  6 26  1  0  0  0  0
  6 31  1  6  0  0  0
  7 32  1  0  0  0  0
  7 33  1  0  0  0  0
  7 34  1  0  0  0  0
  8 27  1  0  0  0  0
  8 35  1  0  0  0  0
  8 36  1  0  0  0  0
  8 37  1  0  0  0  0
  9 20  1  0  0  0  0
  9 25  1  0  0  0  0
 10 27  1  0  0  0  0
 10 38  1  0  0  0  0
 10 39  1  0  0  0  0
 11 12  1  0  0  0  0
 12 13  2  0  0  0  0
 12 15  1  0  0  0  0
 13 14  1  0  0  0  0
 13 40  1  0  0  0  0
 14 18  2  0  0  0  0
 14 41  1  0  0  0  0
 15 16  2  0  0  0  0
 15 42  1  0  0  0  0
 16 17  1  0  0  0  0
 16 18  1  0  0  0  0
 18 19  1  0  0  0  0
 20 21  2  0  0  0  0
 22 23  1  0  0  0  0
 22 43  1  0  0  0  0
 25 44  1  0  0  0  0
 25 45  1  0  0  0  0
 25 46  1  0  0  0  0
 26 47  1  0  0  0  0
 27 28  2  0  0  0  0
 27 29  2  0  0  0  0
M  END
$$$$
