18639-1
 OpenBabel02232411163D
Structure written by MMmdl.
 48 49  0  0  0  0  0  0  0  0999 V2000
   23.2110   10.7910   29.0580 C   0  0  0  0  0  0  0  0  0  0  0  0
   23.4840   11.0460   30.5250 C   0  0  0  0  0  0  0  0  0  0  0  0
   22.2170   11.1580   31.2800 O   0  0  0  0  0  0  0  0  0  0  0  0
   21.5580   10.0300   31.6280 C   0  0  0  0  0  0  0  0  0  0  0  0
   22.0300    8.8310   31.2160 N   0  0  0  0  0  0  0  0  0  0  0  0
   21.2870    7.7060   31.5330 C   0  0  0  0  0  0  0  0  0  0  0  0
   20.1180    7.7620   32.2840 C   0  0  0  0  0  0  0  0  0  0  0  0
   19.6420    9.0230   32.7350 C   0  0  0  0  0  0  0  0  0  0  0  0
   18.4860    9.0820   33.4700 N   0  0  0  0  0  0  0  0  0  0  0  0
   20.3700   10.2090   32.3980 C   0  0  0  0  0  0  0  0  0  0  0  0
   19.9690   11.5160   32.7490 C   0  0  0  0  0  0  0  0  0  0  0  0
   19.6890   12.6140   32.9980 N   0  0  0  0  0  0  0  0  0  0  0  0
   21.8680    6.5370   30.9880 N   0  0  0  0  0  0  0  0  0  0  0  0
   21.2710    5.2630   30.8940 C   0  0  0  0  0  0  0  0  0  0  0  0
   20.1770    5.0120   31.3530 O   0  0  0  0  0  0  0  0  0  0  0  0
   22.1000    4.2660   30.0920 C   0  0  0  0  0  0  0  0  0  0  0  0
   23.4710    4.0060   30.6440 C   0  0  0  0  0  0  0  0  0  0  0  0
   24.5620    4.8720   30.3160 C   0  0  0  0  0  0  0  0  0  0  0  0
   24.1950    5.9160   29.4760 O   0  0  0  0  0  0  0  0  0  0  0  0
   25.1440    7.0060   29.3050 C   0  0  0  0  0  0  0  0  0  0  0  0
   25.8460    4.6380   30.7830 C   0  0  0  0  0  0  0  0  0  0  0  0
   26.0870    3.5260   31.6170 C   0  0  0  0  0  0  0  0  0  0  0  0
   27.4440    3.2770   32.1110 N   0  3  0  0  0  0  0  0  0  0  0  0
   27.5860    2.4930   33.0380 O   0  5  0  0  0  0  0  0  0  0  0  0
   28.3790    3.8570   31.5720 O   0  0  0  0  0  0  0  0  0  0  0  0
   25.0210    2.6570   31.9490 C   0  0  0  0  0  0  0  0  0  0  0  0
   23.7210    2.9050   31.4460 C   0  0  0  0  0  0  0  0  0  0  0  0
   25.3780    1.6230   32.7610 O   0  0  0  0  0  0  0  0  0  0  0  0
   24.3860    0.5830   33.0100 C   0  0  0  0  0  0  0  0  0  0  0  0
   24.1740   10.8390   28.4920 H   0  0  0  0  0  0  0  0  0  0  0  0
   22.5210   11.5540   28.6340 H   0  0  0  0  0  0  0  0  0  0  0  0
   22.7660    9.7800   28.9000 H   0  0  0  0  0  0  0  0  0  0  0  0
   23.8910   12.0700   30.7070 H   0  0  0  0  0  0  0  0  0  0  0  0
   24.1190   10.2520   30.9800 H   0  0  0  0  0  0  0  0  0  0  0  0
   19.5510    6.8570   32.5130 H   0  0  0  0  0  0  0  0  0  0  0  0
   17.9780    8.2160   33.7360 H   0  0  0  0  0  0  0  0  0  0  0  0
   18.0910    9.9730   33.7700 H   0  0  0  0  0  0  0  0  0  0  0  0
   22.7900    6.6850   30.5060 H   0  0  0  0  0  0  0  0  0  0  0  0
   21.5320    3.2990   30.0370 H   0  0  0  0  0  0  0  0  0  0  0  0
   22.2030    4.6780   29.0480 H   0  0  0  0  0  0  0  0  0  0  0  0
   25.4640    7.4050   30.2920 H   0  0  0  0  0  0  0  0  0  0  0  0
   25.9980    6.6530   28.6890 H   0  0  0  0  0  0  0  0  0  0  0  0
   24.5210    7.7510   28.7560 H   0  0  0  0  0  0  0  0  0  0  0  0
   26.6810    5.2920   30.5070 H   0  0  0  0  0  0  0  0  0  0  0  0
   22.9100    2.2140   31.6880 H   0  0  0  0  0  0  0  0  0  0  0  0
   24.9790   -0.1470   33.6120 H   0  0  0  0  0  0  0  0  0  0  0  0
   23.5410    0.9950   33.6020 H   0  0  0  0  0  0  0  0  0  0  0  0
   24.0550    0.1330   32.0490 H   0  0  0  0  0  0  0  0  0  0  0  0
  1  2  1  0  0  0  0
  1 30  1  0  0  0  0
  1 31  1  0  0  0  0
  1 32  1  0  0  0  0
  2  3  1  0  0  0  0
  2 33  1  0  0  0  0
  2 34  1  0  0  0  0
  3  4  1  0  0  0  0
  4 10  2  0  0  0  0
  4  5  1  0  0  0  0
  5  6  2  0  0  0  0
  6  7  1  0  0  0  0
  6 13  1  0  0  0  0
  7  8  2  0  0  0  0
  7 35  1  0  0  0  0
  8  9  1  0  0  0  0
  8 10  1  0  0  0  0
  9 36  1  0  0  0  0
  9 37  1  0  0  0  0
 10 11  1  0  0  0  0
 11 12  3  0  0  0  0
 13 14  1  0  0  0  0
 13 38  1  0  0  0  0
 14 15  2  0  0  0  0
 14 16  1  0  0  0  0
 16 17  1  0  0  0  0
 16 39  1  0  0  0  0
 16 40  1  0  0  0  0
 17 27  2  0  0  0  0
 17 18  1  0  0  0  0
 18 19  1  0  0  0  0
 18 21  2  0  0  0  0
 19 20  1  0  0  0  0
 20 41  1  0  0  0  0
 20 42  1  0  0  0  0
 20 43  1  0  0  0  0
 21 22  1  0  0  0  0
 21 44  1  0  0  0  0
 22 23  1  0  0  0  0
 22 26  2  0  0  0  0
 23 24  1  0  0  0  0
 23 25  2  0  0  0  0
 26 27  1  0  0  0  0
 26 28  1  0  0  0  0
 27 45  1  0  0  0  0
 28 29  1  0  0  0  0
 29 46  1  0  0  0  0
 29 47  1  0  0  0  0
 29 48  1  0  0  0  0
M  CHG  2  23   1  24  -1
M  END
$$$$
