18632-1 flip
                    3D
 Schrodinger Suite 2022-3.
 42 43  0  0  1  0  0  0  0  0999 V2000
   24.8850    2.5930   32.2180 C   0  0  0  0  0  0  0  0  0  0  0  0
   23.6470    2.8730   31.6130 C   0  0  0  0  0  0  0  0  0  0  0  0
   23.5300    3.9330   30.7120 C   0  0  0  0  0  0  0  0  0  0  0  0
   24.6580    4.7050   30.3780 C   0  0  0  0  0  0  0  0  0  0  0  0
   25.8810    4.4060   30.9860 C   0  0  0  0  0  0  0  0  0  0  0  0
   26.0080    3.3530   31.9210 C   0  0  0  0  0  0  0  0  0  0  0  0
   22.1940    4.2410   30.0830 C   0  0  0  0  0  0  0  0  0  0  0  0
   21.3630    5.2130   30.9050 C   0  0  0  0  0  0  0  0  0  0  0  0
   21.9080    6.5200   30.9420 N   0  0  0  0  0  0  0  0  0  0  0  0
   21.3220    7.6770   31.5080 C   0  0  0  0  0  0  0  0  0  0  0  0
   20.3100    4.9330   31.4360 O   0  0  0  0  0  0  0  0  0  0  0  0
   22.0530    8.8140   31.1970 N   0  0  0  0  0  0  0  0  0  0  0  0
   21.5740   10.0050   31.6230 C   0  0  0  0  0  0  0  0  0  0  0  0
   20.3870   10.1660   32.3980 C   0  0  0  0  0  0  0  0  0  0  0  0
   19.6690    8.9710   32.7260 C   0  0  0  0  0  0  0  0  0  0  0  0
   20.1560    7.7170   32.2650 C   0  0  0  0  0  0  0  0  0  0  0  0
   27.0760    5.0440   30.7510 O   0  0  0  0  0  0  0  0  0  0  0  0
   27.0820    6.1940   29.8660 C   0  0  0  0  0  0  0  0  0  0  0  0
   18.5100    9.0220   33.4580 N   0  0  0  0  0  0  0  0  0  0  0  0
   19.9800   11.4660   32.7640 C   0  0  0  0  0  0  0  0  0  0  0  0
   22.2210   11.1440   31.2920 O   0  0  0  0  0  0  0  0  0  0  0  0
   23.4980   11.0680   30.5510 C   0  0  0  0  0  0  0  0  0  0  0  0
   23.2470   10.8350   29.0760 C   0  0  0  0  0  0  0  0  0  0  0  0
   19.6970   12.5600   33.0260 N   0  0  0  0  0  0  0  0  0  0  0  0
   24.9600    1.7630   32.9290 H   0  0  0  0  0  0  0  0  0  0  0  0
   24.5790    5.5050   29.6450 H   0  0  0  0  0  0  0  0  0  0  0  0
   19.6010    6.8060   32.4960 H   0  0  0  0  0  0  0  0  0  0  0  0
   21.6130    3.2870   29.9660 H   0  0  0  0  0  0  0  0  0  0  0  0
   22.3460    4.6780   29.0600 H   0  0  0  0  0  0  0  0  0  0  0  0
   22.8130    6.6870   30.4590 H   0  0  0  0  0  0  0  0  0  0  0  0
   26.7770    5.8930   28.8410 H   0  0  0  0  0  0  0  0  0  0  0  0
   26.4340    6.9990   30.2770 H   0  0  0  0  0  0  0  0  0  0  0  0
   28.1570    6.4930   29.8890 H   0  0  0  0  0  0  0  0  0  0  0  0
   18.0140    8.1550   33.7400 H   0  0  0  0  0  0  0  0  0  0  0  0
   18.1180    9.9110   33.7680 H   0  0  0  0  0  0  0  0  0  0  0  0
   24.1440   10.2790   30.9990 H   0  0  0  0  0  0  0  0  0  0  0  0
   23.8820   12.0960   30.7550 H   0  0  0  0  0  0  0  0  0  0  0  0
   22.8980    9.7920   28.8840 H   0  0  0  0  0  0  0  0  0  0  0  0
   22.4910   11.5450   28.6740 H   0  0  0  0  0  0  0  0  0  0  0  0
   24.2010   10.9860   28.5120 H   0  0  0  0  0  0  0  0  0  0  0  0
   26.9720    3.1420   32.3890 H   0  0  0  0  0  0  0  0  0  0  0  0
   22.7920    2.2390   31.8490 H   0  0  0  0  0  0  0  0  0  0  0  0
  1  2  1  0  0  0  0
  1  6  2  0  0  0  0
  1 25  1  0  0  0  0
  2  3  2  0  0  0  0
  2 42  1  0  0  0  0
  3  4  1  0  0  0  0
  3  7  1  0  0  0  0
  4  5  2  0  0  0  0
  4 26  1  0  0  0  0
  5  6  1  0  0  0  0
  5 17  1  0  0  0  0
  6 41  1  0  0  0  0
  7  8  1  0  0  0  0
  7 28  1  0  0  0  0
  7 29  1  0  0  0  0
  8  9  1  0  0  0  0
  8 11  2  0  0  0  0
  9 10  1  0  0  0  0
  9 30  1  0  0  0  0
 10 12  1  0  0  0  0
 10 16  2  0  0  0  0
 12 13  2  0  0  0  0
 13 14  1  0  0  0  0
 13 21  1  0  0  0  0
 14 15  2  0  0  0  0
 14 20  1  0  0  0  0
 15 16  1  0  0  0  0
 15 19  1  0  0  0  0
 16 27  1  0  0  0  0
 17 18  1  0  0  0  0
 18 31  1  0  0  0  0
 18 32  1  0  0  0  0
 18 33  1  0  0  0  0
 19 34  1  0  0  0  0
 19 35  1  0  0  0  0
 20 24  3  0  0  0  0
 21 22  1  0  0  0  0
 22 23  1  0  0  0  0
 22 36  1  0  0  0  0
 22 37  1  0  0  0  0
 23 38  1  0  0  0  0
 23 39  1  0  0  0  0
 23 40  1  0  0  0  0
M  END
$$$$
