18638-1
 OpenBabel02232411163D
Structure written by MMmdl.
 52 53  0  0  0  0  0  0  0  0999 V2000
   23.3120   10.6010   29.0210 C   0  0  0  0  0  0  0  0  0  0  0  0
   23.6090   10.8800   30.4790 C   0  0  0  0  0  0  0  0  0  0  0  0
   22.3560   11.0130   31.2510 O   0  0  0  0  0  0  0  0  0  0  0  0
   21.6800    9.8990   31.6100 C   0  0  0  0  0  0  0  0  0  0  0  0
   22.1360    8.6870   31.2130 N   0  0  0  0  0  0  0  0  0  0  0  0
   21.3760    7.5790   31.5450 C   0  0  0  0  0  0  0  0  0  0  0  0
   20.2070    7.6660   32.2960 C   0  0  0  0  0  0  0  0  0  0  0  0
   19.7450    8.9380   32.7250 C   0  0  0  0  0  0  0  0  0  0  0  0
   18.5800    9.0250   33.4450 N   0  0  0  0  0  0  0  0  0  0  0  0
   20.4950   10.1080   32.3770 C   0  0  0  0  0  0  0  0  0  0  0  0
   20.1140   11.4220   32.7200 C   0  0  0  0  0  0  0  0  0  0  0  0
   19.8490   12.5240   32.9680 N   0  0  0  0  0  0  0  0  0  0  0  0
   21.9160    6.3830   31.0100 N   0  0  0  0  0  0  0  0  0  0  0  0
   21.2240    5.1590   30.9020 C   0  0  0  0  0  0  0  0  0  0  0  0
   20.1380    4.9740   31.4090 O   0  0  0  0  0  0  0  0  0  0  0  0
   21.9080    4.1310   30.0160 C   0  0  0  0  0  0  0  0  0  0  0  0
   23.2810    3.7070   30.4420 C   0  0  0  0  0  0  0  0  0  0  0  0
   24.4290    4.4100   29.9700 C   0  0  0  0  0  0  0  0  0  0  0  0
   24.1040    5.5420   29.2280 O   0  0  0  0  0  0  0  0  0  0  0  0
   25.1400    6.5520   29.0840 C   0  0  0  0  0  0  0  0  0  0  0  0
   25.7160    3.9330   30.1920 C   0  0  0  0  0  0  0  0  0  0  0  0
   25.9200    2.7680   30.9540 C   0  0  0  0  0  0  0  0  0  0  0  0
   27.5570    2.1540   31.0920 S   0  0  0  0  0  0  0  0  0  0  0  0
   28.5310    3.2740   31.0940 O   0  0  0  0  0  0  0  0  0  0  0  0
   27.6740    1.3570   32.3360 O   0  0  0  0  0  0  0  0  0  0  0  0
   27.7490    1.1630   29.6810 C   0  0  0  0  0  0  0  0  0  0  0  0
   24.7980    2.1260   31.4980 C   0  0  0  0  0  0  0  0  0  0  0  0
   23.4820    2.5780   31.2200 C   0  0  0  0  0  0  0  0  0  0  0  0
   25.0730    1.0680   32.3270 O   0  0  0  0  0  0  0  0  0  0  0  0
   23.9880    0.1470   32.6370 C   0  0  0  0  0  0  0  0  0  0  0  0
   22.9020    9.5730   28.8810 H   0  0  0  0  0  0  0  0  0  0  0  0
   22.5830   11.3340   28.6070 H   0  0  0  0  0  0  0  0  0  0  0  0
   24.2580   10.6810   28.4310 H   0  0  0  0  0  0  0  0  0  0  0  0
   24.0240   11.9050   30.6360 H   0  0  0  0  0  0  0  0  0  0  0  0
   24.2470   10.0920   30.9380 H   0  0  0  0  0  0  0  0  0  0  0  0
   19.6270    6.7740   32.5440 H   0  0  0  0  0  0  0  0  0  0  0  0
   18.0630    8.1720   33.7290 H   0  0  0  0  0  0  0  0  0  0  0  0
   18.2010    9.9260   33.7380 H   0  0  0  0  0  0  0  0  0  0  0  0
   22.8330    6.4770   30.5140 H   0  0  0  0  0  0  0  0  0  0  0  0
   21.2520    3.2230   29.9590 H   0  0  0  0  0  0  0  0  0  0  0  0
   21.9760    4.5850   28.9860 H   0  0  0  0  0  0  0  0  0  0  0  0
   24.5500    7.4290   28.7320 H   0  0  0  0  0  0  0  0  0  0  0  0
   25.6240    6.7600   30.0620 H   0  0  0  0  0  0  0  0  0  0  0  0
   25.8700    6.2130   28.3190 H   0  0  0  0  0  0  0  0  0  0  0  0
   26.5700    4.4590   29.7480 H   0  0  0  0  0  0  0  0  0  0  0  0
   27.6830    1.7620   28.7330 H   0  0  0  0  0  0  0  0  0  0  0  0
   28.7370    0.6350   29.6530 H   0  0  0  0  0  0  0  0  0  0  0  0
   26.9580    0.3720   29.6030 H   0  0  0  0  0  0  0  0  0  0  0  0
   22.6230    2.0240   31.6010 H   0  0  0  0  0  0  0  0  0  0  0  0
   23.5580   -0.2580   31.6950 H   0  0  0  0  0  0  0  0  0  0  0  0
   23.2270    0.6420   33.2770 H   0  0  0  0  0  0  0  0  0  0  0  0
   24.5260   -0.6520   33.2030 H   0  0  0  0  0  0  0  0  0  0  0  0
  1  2  1  0  0  0  0
  1 31  1  0  0  0  0
  1 32  1  0  0  0  0
  1 33  1  0  0  0  0
  2  3  1  0  0  0  0
  2 34  1  0  0  0  0
  2 35  1  0  0  0  0
  3  4  1  0  0  0  0
  4 10  2  0  0  0  0
  4  5  1  0  0  0  0
  5  6  2  0  0  0  0
  6  7  1  0  0  0  0
  6 13  1  0  0  0  0
  7  8  2  0  0  0  0
  7 36  1  0  0  0  0
  8  9  1  0  0  0  0
  8 10  1  0  0  0  0
  9 37  1  0  0  0  0
  9 38  1  0  0  0  0
 10 11  1  0  0  0  0
 11 12  3  0  0  0  0
 13 14  1  0  0  0  0
 13 39  1  0  0  0  0
 14 15  2  0  0  0  0
 14 16  1  0  0  0  0
 16 17  1  0  0  0  0
 16 40  1  0  0  0  0
 16 41  1  0  0  0  0
 17 28  2  0  0  0  0
 17 18  1  0  0  0  0
 18 19  1  0  0  0  0
 18 21  2  0  0  0  0
 19 20  1  0  0  0  0
 20 42  1  0  0  0  0
 20 43  1  0  0  0  0
 20 44  1  0  0  0  0
 21 22  1  0  0  0  0
 21 45  1  0  0  0  0
 22 23  1  0  0  0  0
 22 27  2  0  0  0  0
 23 24  2  0  0  0  0
 23 25  2  0  0  0  0
 23 26  1  0  0  0  0
 26 46  1  0  0  0  0
 26 47  1  0  0  0  0
 26 48  1  0  0  0  0
 27 28  1  0  0  0  0
 27 29  1  0  0  0  0
 28 49  1  0  0  0  0
 29 30  1  0  0  0  0
 30 50  1  0  0  0  0
 30 51  1  0  0  0  0
 30 52  1  0  0  0  0
M  END
$$$$
