18639-1
 OpenBabel02232411163D
Structure written by MMmdl.
 48 49  0  0  0  0  0  0  0  0999 V2000
   23.8230   12.6890   30.3450 C   0  0  0  0  0  0  0  0  0  0  0  0
   23.3750   11.2440   30.4490 C   0  0  0  0  0  0  0  0  0  0  0  0
   22.1290   11.3350   31.2520 O   0  0  0  0  0  0  0  0  0  0  0  0
   21.5040   10.1910   31.6010 C   0  0  0  0  0  0  0  0  0  0  0  0
   21.9960    9.0040   31.1710 N   0  0  0  0  0  0  0  0  0  0  0  0
   21.2710    7.8650   31.4870 C   0  0  0  0  0  0  0  0  0  0  0  0
   20.1110    7.8970   32.2540 C   0  0  0  0  0  0  0  0  0  0  0  0
   19.6150    9.1450   32.7180 C   0  0  0  0  0  0  0  0  0  0  0  0
   18.4710    9.1770   33.4740 N   0  0  0  0  0  0  0  0  0  0  0  0
   20.3140   10.3460   32.3750 C   0  0  0  0  0  0  0  0  0  0  0  0
   19.8800   11.6450   32.7120 C   0  0  0  0  0  0  0  0  0  0  0  0
   19.5700   12.7390   32.9430 N   0  0  0  0  0  0  0  0  0  0  0  0
   21.8470    6.6990   30.9280 N   0  0  0  0  0  0  0  0  0  0  0  0
   21.2470    5.4240   30.8520 C   0  0  0  0  0  0  0  0  0  0  0  0
   20.1600    5.1770   31.3300 O   0  0  0  0  0  0  0  0  0  0  0  0
   22.0580    4.4150   30.0460 C   0  0  0  0  0  0  0  0  0  0  0  0
   23.4140    4.1140   30.6120 C   0  0  0  0  0  0  0  0  0  0  0  0
   24.5290    4.9550   30.3000 C   0  0  0  0  0  0  0  0  0  0  0  0
   24.1920    6.0090   29.4610 O   0  0  0  0  0  0  0  0  0  0  0  0
   25.1770    7.0640   29.2770 C   0  0  0  0  0  0  0  0  0  0  0  0
   25.8010    4.6890   30.7810 C   0  0  0  0  0  0  0  0  0  0  0  0
   26.0070    3.5650   31.6100 C   0  0  0  0  0  0  0  0  0  0  0  0
   27.3530    3.2810   32.1140 N   0  3  0  0  0  0  0  0  0  0  0  0
   27.4710    2.4710   33.0210 O   0  5  0  0  0  0  0  0  0  0  0  0
   28.3040    3.8610   31.6030 O   0  0  0  0  0  0  0  0  0  0  0  0
   24.9170    2.7200   31.9230 C   0  0  0  0  0  0  0  0  0  0  0  0
   23.6300    3.0000   31.4080 C   0  0  0  0  0  0  0  0  0  0  0  0
   25.2420    1.6730   32.7330 O   0  0  0  0  0  0  0  0  0  0  0  0
   24.2260    0.6510   32.9610 C   0  0  0  0  0  0  0  0  0  0  0  0
   24.7540   12.7310   29.7260 H   0  0  0  0  0  0  0  0  0  0  0  0
   23.0460   13.3140   29.8430 H   0  0  0  0  0  0  0  0  0  0  0  0
   24.0390   13.1210   31.3470 H   0  0  0  0  0  0  0  0  0  0  0  0
   23.1060   10.8070   29.4610 H   0  0  0  0  0  0  0  0  0  0  0  0
   24.1020   10.6080   31.0020 H   0  0  0  0  0  0  0  0  0  0  0  0
   19.5640    6.9810   32.4880 H   0  0  0  0  0  0  0  0  0  0  0  0
   17.9640    8.3030   33.7110 H   0  0  0  0  0  0  0  0  0  0  0  0
   18.0550   10.0600   33.7710 H   0  0  0  0  0  0  0  0  0  0  0  0
   22.7680    6.8390   30.4420 H   0  0  0  0  0  0  0  0  0  0  0  0
   21.4650    3.4630   29.9760 H   0  0  0  0  0  0  0  0  0  0  0  0
   22.1830    4.8300   29.0060 H   0  0  0  0  0  0  0  0  0  0  0  0
   25.5110    7.4620   30.2580 H   0  0  0  0  0  0  0  0  0  0  0  0
   26.0170    6.6760   28.6640 H   0  0  0  0  0  0  0  0  0  0  0  0
   24.5790    7.8220   28.7190 H   0  0  0  0  0  0  0  0  0  0  0  0
   26.6550    5.3250   30.5190 H   0  0  0  0  0  0  0  0  0  0  0  0
   22.7990    2.3280   31.6370 H   0  0  0  0  0  0  0  0  0  0  0  0
   24.7950   -0.0920   33.5690 H   0  0  0  0  0  0  0  0  0  0  0  0
   23.3780    1.0760   33.5390 H   0  0  0  0  0  0  0  0  0  0  0  0
   23.9040    0.2110   31.9920 H   0  0  0  0  0  0  0  0  0  0  0  0
  1  2  1  0  0  0  0
  1 30  1  0  0  0  0
  1 31  1  0  0  0  0
  1 32  1  0  0  0  0
  2  3  1  0  0  0  0
  2 33  1  0  0  0  0
  2 34  1  0  0  0  0
  3  4  1  0  0  0  0
  4 10  2  0  0  0  0
  4  5  1  0  0  0  0
  5  6  2  0  0  0  0
  6  7  1  0  0  0  0
  6 13  1  0  0  0  0
  7  8  2  0  0  0  0
  7 35  1  0  0  0  0
  8  9  1  0  0  0  0
  8 10  1  0  0  0  0
  9 36  1  0  0  0  0
  9 37  1  0  0  0  0
 10 11  1  0  0  0  0
 11 12  3  0  0  0  0
 13 14  1  0  0  0  0
 13 38  1  0  0  0  0
 14 15  2  0  0  0  0
 14 16  1  0  0  0  0
 16 17  1  0  0  0  0
 16 39  1  0  0  0  0
 16 40  1  0  0  0  0
 17 27  2  0  0  0  0
 17 18  1  0  0  0  0
 18 19  1  0  0  0  0
 18 21  2  0  0  0  0
 19 20  1  0  0  0  0
 20 41  1  0  0  0  0
 20 42  1  0  0  0  0
 20 43  1  0  0  0  0
 21 22  1  0  0  0  0
 21 44  1  0  0  0  0
 22 23  1  0  0  0  0
 22 26  2  0  0  0  0
 23 24  1  0  0  0  0
 23 25  2  0  0  0  0
 26 27  1  0  0  0  0
 26 28  1  0  0  0  0
 27 45  1  0  0  0  0
 28 29  1  0  0  0  0
 29 46  1  0  0  0  0
 29 47  1  0  0  0  0
 29 48  1  0  0  0  0
M  CHG  2  23   1  24  -1
M  END
$$$$
