p38a_3flw
 OpenBabel02232411163D
Structure written by MMmdl.
 49 51  0  0  0  0  0  0  0  0999 V2000
   38.2930   36.5590   17.1300 C   0  0  0  0  0  0  0  0  0  0  0  0
   37.6510   36.7240   15.8950 C   0  0  0  0  0  0  0  0  0  0  0  0
   33.1920   39.9270   27.3790 C   0  0  0  0  0  0  0  0  0  0  0  0
   34.5860   40.4950   27.6840 C   0  0  0  0  0  0  0  0  0  0  0  0
   31.6690   38.4750   25.9480 C   0  0  0  0  0  0  0  0  0  0  0  0
   34.0940   34.9640   23.6710 C   0  0  0  0  0  0  0  0  0  0  0  0
   38.0290   35.9610   19.3910 F   0  0  0  0  0  0  0  0  0  0  0  0
   37.5030   36.1020   18.1810 C   0  0  0  0  0  0  0  0  0  0  0  0
   38.3550   37.2250   14.8830 F   0  0  0  0  0  0  0  0  0  0  0  0
   36.3030   36.4290   15.6810 C   0  0  0  0  0  0  0  0  0  0  0  0
   35.5340   35.9560   16.7500 C   0  0  0  0  0  0  0  0  0  0  0  0
   36.1400   35.7850   17.9980 C   0  0  0  0  0  0  0  0  0  0  0  0
   35.4120   35.1560   19.0150 O   0  0  0  0  0  0  0  0  0  0  0  0
   35.0450   35.9640   20.0900 C   0  0  0  0  0  0  0  0  0  0  0  0
   35.0300   37.3150   20.1410 C   0  0  0  0  0  0  0  0  0  0  0  0
   34.6380   37.9560   21.3680 C   0  0  0  0  0  0  0  0  0  0  0  0
   34.5420   39.3650   21.5110 C   0  0  0  0  0  0  0  0  0  0  0  0
   34.1920   39.9600   22.6620 N   0  0  0  0  0  0  0  0  0  0  0  0
   34.6210   35.0790   21.2070 C   0  0  0  0  0  0  0  0  0  0  0  0
   34.4860   33.8770   21.1440 O   0  0  0  0  0  0  0  0  0  0  0  0
   34.3610   35.7670   22.4440 N   0  0  0  0  0  0  0  0  0  0  0  0
   34.3360   37.1680   22.5190 C   0  0  0  0  0  0  0  0  0  0  0  0
   33.9920   37.7440   23.7170 N   0  0  0  0  0  0  0  0  0  0  0  0
   33.9180   39.1230   23.7620 C   0  0  0  0  0  0  0  0  0  0  0  0
   33.5890   39.7350   24.9500 N   0  0  0  0  0  0  0  0  0  0  0  0
   33.1150   38.9870   26.1560 C   0  0  0  0  0  0  0  0  0  0  0  0
   31.2320   37.5100   27.0600 C   0  0  0  0  0  0  0  0  0  0  0  0
   30.5670   36.3850   26.4430 O   0  0  0  0  0  0  0  0  0  0  0  0
   35.4730   39.5160   28.2480 O   0  0  0  0  0  0  0  0  0  0  0  0
   39.3470   36.8140   17.2700 H   0  0  0  0  0  0  0  0  0  0  0  0
   32.8240   39.3700   28.2760 H   0  0  0  0  0  0  0  0  0  0  0  0
   32.5060   40.7970   27.2200 H   0  0  0  0  0  0  0  0  0  0  0  0
   35.0570   40.9240   26.7690 H   0  0  0  0  0  0  0  0  0  0  0  0
   34.5090   41.2640   28.4900 H   0  0  0  0  0  0  0  0  0  0  0  0
   30.9680   39.3390   25.8920 H   0  0  0  0  0  0  0  0  0  0  0  0
   31.6080   37.9160   24.9800 H   0  0  0  0  0  0  0  0  0  0  0  0
   34.8210   35.2480   24.4790 H   0  0  0  0  0  0  0  0  0  0  0  0
   33.0530   35.1650   24.0410 H   0  0  0  0  0  0  0  0  0  0  0  0
   34.2020   33.8700   23.4490 H   0  0  0  0  0  0  0  0  0  0  0  0
   35.8380   36.5780   14.7050 H   0  0  0  0  0  0  0  0  0  0  0  0
   34.4710   35.7400   16.6030 H   0  0  0  0  0  0  0  0  0  0  0  0
   35.3080   37.9460   19.2940 H   0  0  0  0  0  0  0  0  0  0  0  0
   34.7470   40.0240   20.6500 H   0  0  0  0  0  0  0  0  0  0  0  0
   33.4560   40.7650   24.9780 H   0  0  0  0  0  0  0  0  0  0  0  0
   33.7990   38.1090   26.3120 H   0  0  0  0  0  0  0  0  0  0  0  0
   32.1050   37.0590   27.5860 H   0  0  0  0  0  0  0  0  0  0  0  0
   30.5430   38.0060   27.7770 H   0  0  0  0  0  0  0  0  0  0  0  0
   29.5950   36.3820   26.7740 H   0  0  0  0  0  0  0  0  0  0  0  0
   35.5650   38.7670   27.6140 H   0  0  0  0  0  0  0  0  0  0  0  0
  1  2  2  0  0  0  0
  1  8  1  0  0  0  0
  1 30  1  0  0  0  0
  2  9  1  0  0  0  0
  2 10  1  0  0  0  0
  3  4  1  0  0  0  0
  3 26  1  0  0  0  0
  3 31  1  0  0  0  0
  3 32  1  0  0  0  0
  4 29  1  0  0  0  0
  4 33  1  0  0  0  0
  4 34  1  0  0  0  0
  5 26  1  0  0  0  0
  5 27  1  0  0  0  0
  5 35  1  0  0  0  0
  5 36  1  0  0  0  0
  6 21  1  0  0  0  0
  6 37  1  0  0  0  0
  6 38  1  0  0  0  0
  6 39  1  0  0  0  0
  7  8  1  0  0  0  0
  8 12  2  0  0  0  0
 10 11  2  0  0  0  0
 10 40  1  0  0  0  0
 11 12  1  0  0  0  0
 11 41  1  0  0  0  0
 12 13  1  0  0  0  0
 13 14  1  0  0  0  0
 14 15  2  0  0  0  0
 14 19  1  0  0  0  0
 15 16  1  0  0  0  0
 15 42  1  0  0  0  0
 16 17  2  0  0  0  0
 16 22  1  0  0  0  0
 17 18  1  0  0  0  0
 17 43  1  0  0  0  0
 18 24  2  0  0  0  0
 19 20  2  0  0  0  0
 19 21  1  0  0  0  0
 21 22  1  0  0  0  0
 22 23  2  0  0  0  0
 23 24  1  0  0  0  0
 24 25  1  0  0  0  0
 25 26  1  0  0  0  0
 25 44  1  0  0  0  0
 26 45  1  0  0  0  0
 27 28  1  0  0  0  0
 27 46  1  0  0  0  0
 27 47  1  0  0  0  0
 28 48  1  0  0  0  0
 29 49  1  0  0  0  0
M  END
$$$$
