CAT-17g
 OpenBabel02232411143D
Structure written by MMmdl.
 42 45  0  0  1  0  0  0  0  0999 V2000
   11.6340   -2.3120    1.2340 C   0  0  0  0  0  0  0  0  0  0  0  0
   12.9840   -2.3160    0.6340 N   0  0  0  0  0  0  0  0  0  0  0  0
   14.1680   -2.3160    1.3630 C   0  0  0  0  0  0  0  0  0  0  0  0
   14.3060   -2.4180    2.7150 N   0  0  0  0  0  0  0  0  0  0  0  0
   15.2660   -2.2550    0.4920 N   0  3  0  0  0  0  0  0  0  0  0  0
   14.8240   -2.5860   -0.9150 C   0  0  1  0  0  0  0  0  0  0  0  0
   15.4180   -1.5740   -1.8700 C   0  0  0  0  0  0  0  0  0  0  0  0
   16.2690   -1.9640   -2.9110 C   0  0  0  0  0  0  0  0  0  0  0  0
   16.7320   -1.0050   -3.8180 C   0  0  0  0  0  0  0  0  0  0  0  0
   16.3710    0.3370   -3.6830 C   0  0  0  0  0  0  0  0  0  0  0  0
   15.5630    0.7430   -2.6070 C   0  0  0  0  0  0  0  0  0  0  0  0
   15.1940    2.1580   -2.4050 C   0  0  0  0  0  0  0  0  0  0  0  0
   14.6490    2.9310   -3.4540 C   0  0  0  0  0  0  0  0  0  0  0  0
   14.1960    4.1980   -3.2730 N   0  0  0  0  0  0  0  0  0  0  0  0
   14.2780    4.7560   -2.0420 C   0  0  0  0  0  0  0  0  0  0  0  0
   14.8680    4.0510   -0.9710 C   0  0  0  0  0  0  0  0  0  0  0  0
   14.9680    4.6340    0.2200 F   0  0  0  0  0  0  0  0  0  0  0  0
   15.3350    2.7480   -1.1370 C   0  0  0  0  0  0  0  0  0  0  0  0
   15.0810   -0.2220   -1.7100 C   0  0  0  0  0  0  0  0  0  0  0  0
   15.0430   -4.0470   -1.2780 C   0  0  0  0  0  0  0  0  0  0  0  0
   16.2630   -4.8000   -0.7770 C   0  0  0  0  0  0  0  0  0  0  0  0
   14.8960   -5.1450   -0.2290 C   0  0  0  0  0  0  0  0  0  0  0  0
   13.2710   -2.4070   -0.8160 C   0  0  0  0  0  0  0  0  0  0  0  0
   12.4110   -2.3520   -1.6340 O   0  0  0  0  0  0  0  0  0  0  0  0
   11.6770   -2.6050    2.3160 H   0  0  0  0  0  0  0  0  0  0  0  0
   11.1900   -1.2850    1.1420 H   0  0  0  0  0  0  0  0  0  0  0  0
   10.9880   -3.0570    0.6930 H   0  0  0  0  0  0  0  0  0  0  0  0
   13.5810   -2.0430    3.3760 H   0  0  0  0  0  0  0  0  0  0  0  0
   16.1930   -2.6090    0.8580 H   0  0  0  0  0  0  0  0  0  0  0  0
   16.5740   -3.0070   -3.0160 H   0  0  0  0  0  0  0  0  0  0  0  0
   17.3880   -1.3120   -4.6400 H   0  0  0  0  0  0  0  0  0  0  0  0
   16.7240    1.0670   -4.4180 H   0  0  0  0  0  0  0  0  0  0  0  0
   14.5570    2.5120   -4.4700 H   0  0  0  0  0  0  0  0  0  0  0  0
   13.8530    5.7650   -1.9130 H   0  0  0  0  0  0  0  0  0  0  0  0
   15.7870    2.1870   -0.3140 H   0  0  0  0  0  0  0  0  0  0  0  0
   14.4440    0.0770   -0.8790 H   0  0  0  0  0  0  0  0  0  0  0  0
   14.6860   -4.2740   -2.2990 H   0  0  0  0  0  0  0  0  0  0  0  0
   16.7790   -5.4750   -1.4580 H   0  0  0  0  0  0  0  0  0  0  0  0
   16.9800   -4.2840   -0.1350 H   0  0  0  0  0  0  0  0  0  0  0  0
   14.6620   -4.8760    0.8080 H   0  0  0  0  0  0  0  0  0  0  0  0
   14.4090   -6.0830   -0.5280 H   0  0  0  0  0  0  0  0  0  0  0  0
   15.2820   -2.3620    3.1240 H   0  0  0  0  0  0  0  0  0  0  0  0
  1  2  1  0  0  0  0
  1 25  1  0  0  0  0
  1 26  1  0  0  0  0
  1 27  1  0  0  0  0
  2  3  1  0  0  0  0
  2 23  1  0  0  0  0
  3  4  1  0  0  0  0
  3  5  2  0  0  0  0
  4 28  1  0  0  0  0
  4 42  1  0  0  0  0
  5  6  1  0  0  0  0
  5 29  1  0  0  0  0
  6  7  1  6  0  0  0
  6 20  1  0  0  0  0
  6 23  1  0  0  0  0
  7  8  2  0  0  0  0
  7 19  1  0  0  0  0
  8  9  1  0  0  0  0
  8 30  1  0  0  0  0
  9 10  2  0  0  0  0
  9 31  1  0  0  0  0
 10 11  1  0  0  0  0
 10 32  1  0  0  0  0
 11 12  1  0  0  0  0
 11 19  2  0  0  0  0
 12 13  2  0  0  0  0
 12 18  1  0  0  0  0
 13 14  1  0  0  0  0
 13 33  1  0  0  0  0
 14 15  2  0  0  0  0
 15 16  1  0  0  0  0
 15 34  1  0  0  0  0
 16 18  2  0  0  0  0
 16 17  1  0  0  0  0
 18 35  1  0  0  0  0
 19 36  1  0  0  0  0
 20 21  1  0  0  0  0
 20 22  1  0  0  0  0
 20 37  1  0  0  0  0
 21 22  1  0  0  0  0
 21 38  1  0  0  0  0
 21 39  1  0  0  0  0
 22 40  1  0  0  0  0
 22 41  1  0  0  0  0
 23 24  2  0  0  0  0
M  CHG  1   5   1
M  END
$$$$
