18634-1
 OpenBabel02232411163D
Structure written by MMmdl.
 46 47  0  0  0  0  0  0  0  0999 V2000
   23.2170   10.7720   29.0690 C   0  0  0  0  0  0  0  0  0  0  0  0
   23.4990   10.9730   30.5440 C   0  0  0  0  0  0  0  0  0  0  0  0
   22.2360   11.0910   31.3020 O   0  0  0  0  0  0  0  0  0  0  0  0
   21.5580    9.9680   31.6330 C   0  0  0  0  0  0  0  0  0  0  0  0
   21.9990    8.7700   31.1900 N   0  0  0  0  0  0  0  0  0  0  0  0
   21.2440    7.6490   31.5010 C   0  0  0  0  0  0  0  0  0  0  0  0
   20.0920    7.7120   32.2780 C   0  0  0  0  0  0  0  0  0  0  0  0
   19.6440    8.9730   32.7540 C   0  0  0  0  0  0  0  0  0  0  0  0
   18.5000    9.0430   33.5080 N   0  0  0  0  0  0  0  0  0  0  0  0
   20.3850   10.1540   32.4230 C   0  0  0  0  0  0  0  0  0  0  0  0
   20.0090   11.4610   32.7970 C   0  0  0  0  0  0  0  0  0  0  0  0
   19.7490   12.5600   33.0630 N   0  0  0  0  0  0  0  0  0  0  0  0
   21.7950    6.4880   30.9210 N   0  0  0  0  0  0  0  0  0  0  0  0
   21.2190    5.1960   30.8790 C   0  0  0  0  0  0  0  0  0  0  0  0
   20.1510    4.9400   31.3890 O   0  0  0  0  0  0  0  0  0  0  0  0
   22.0430    4.2020   30.0720 C   0  0  0  0  0  0  0  0  0  0  0  0
   23.3980    3.9480   30.6660 C   0  0  0  0  0  0  0  0  0  0  0  0
   24.4960    4.8060   30.3640 C   0  0  0  0  0  0  0  0  0  0  0  0
   24.1600    5.8360   29.4890 O   0  0  0  0  0  0  0  0  0  0  0  0
   25.1090    6.9280   29.3520 C   0  0  0  0  0  0  0  0  0  0  0  0
   25.7630    4.5880   30.8930 C   0  0  0  0  0  0  0  0  0  0  0  0
   25.9760    3.5070   31.7610 C   0  0  0  0  0  0  0  0  0  0  0  0
   24.9070    2.6650   32.0640 C   0  0  0  0  0  0  0  0  0  0  0  0
   23.6190    2.8680   31.5090 C   0  0  0  0  0  0  0  0  0  0  0  0
   24.9470    1.5700   32.9040 O   0  0  0  0  0  0  0  0  0  0  0  0
   26.2140    1.2580   33.5380 C   0  0  0  0  0  0  0  0  0  0  0  0
   22.7830    9.7630   28.8750 H   0  0  0  0  0  0  0  0  0  0  0  0
   22.5150   11.5440   28.6820 H   0  0  0  0  0  0  0  0  0  0  0  0
   24.1750   10.8550   28.4980 H   0  0  0  0  0  0  0  0  0  0  0  0
   23.9320   11.9800   30.7570 H   0  0  0  0  0  0  0  0  0  0  0  0
   24.1190   10.1530   30.9720 H   0  0  0  0  0  0  0  0  0  0  0  0
   19.5160    6.8140   32.5120 H   0  0  0  0  0  0  0  0  0  0  0  0
   18.1290    9.9370   33.8300 H   0  0  0  0  0  0  0  0  0  0  0  0
   17.9920    8.1830   33.7890 H   0  0  0  0  0  0  0  0  0  0  0  0
   22.7090    6.6360   30.4210 H   0  0  0  0  0  0  0  0  0  0  0  0
   21.4750    3.2390   30.0020 H   0  0  0  0  0  0  0  0  0  0  0  0
   22.1700    4.6180   29.0350 H   0  0  0  0  0  0  0  0  0  0  0  0
   26.0000    6.5720   28.7920 H   0  0  0  0  0  0  0  0  0  0  0  0
   24.5200    7.6650   28.7610 H   0  0  0  0  0  0  0  0  0  0  0  0
   25.3800    7.3390   30.3490 H   0  0  0  0  0  0  0  0  0  0  0  0
   26.6090    5.2350   30.6480 H   0  0  0  0  0  0  0  0  0  0  0  0
   26.9770    3.3560   32.1700 H   0  0  0  0  0  0  0  0  0  0  0  0
   22.8230    2.1610   31.7540 H   0  0  0  0  0  0  0  0  0  0  0  0
   26.9790    1.0130   32.7690 H   0  0  0  0  0  0  0  0  0  0  0  0
   26.5380    2.0990   34.1880 H   0  0  0  0  0  0  0  0  0  0  0  0
   25.9510    0.3590   34.1420 H   0  0  0  0  0  0  0  0  0  0  0  0
  1  2  1  0  0  0  0
  1 27  1  0  0  0  0
  1 28  1  0  0  0  0
  1 29  1  0  0  0  0
  2  3  1  0  0  0  0
  2 30  1  0  0  0  0
  2 31  1  0  0  0  0
  3  4  1  0  0  0  0
  4 10  2  0  0  0  0
  4  5  1  0  0  0  0
  5  6  2  0  0  0  0
  6  7  1  0  0  0  0
  6 13  1  0  0  0  0
  7  8  2  0  0  0  0
  7 32  1  0  0  0  0
  8  9  1  0  0  0  0
  8 10  1  0  0  0  0
  9 33  1  0  0  0  0
  9 34  1  0  0  0  0
 10 11  1  0  0  0  0
 11 12  3  0  0  0  0
 13 14  1  0  0  0  0
 13 35  1  0  0  0  0
 14 15  2  0  0  0  0
 14 16  1  0  0  0  0
 16 17  1  0  0  0  0
 16 36  1  0  0  0  0
 16 37  1  0  0  0  0
 17 24  2  0  0  0  0
 17 18  1  0  0  0  0
 18 19  1  0  0  0  0
 18 21  2  0  0  0  0
 19 20  1  0  0  0  0
 20 38  1  0  0  0  0
 20 39  1  0  0  0  0
 20 40  1  0  0  0  0
 21 22  1  0  0  0  0
 21 41  1  0  0  0  0
 22 23  2  0  0  0  0
 22 42  1  0  0  0  0
 23 24  1  0  0  0  0
 23 25  1  0  0  0  0
 24 43  1  0  0  0  0
 25 26  1  0  0  0  0
 26 44  1  0  0  0  0
 26 45  1  0  0  0  0
 26 46  1  0  0  0  0
M  END
$$$$
