22
 OpenBabel02232411153D
Structure written by MMmdl.
 49 52  0  0  0  0  0  0  0  0999 V2000
    1.7900   28.8760    6.8520 C   0  0  0  0  0  0  0  0  0  0  0  0
   -1.6590   31.5130    8.0170 C   0  0  0  0  0  0  0  0  0  0  0  0
   -0.2380   26.0020    8.9010 C   0  0  0  0  0  0  0  0  0  0  0  0
   -0.9730   25.3000   10.0500 C   0  0  0  0  0  0  0  0  0  0  0  0
   -0.7730   23.7790    9.8560 C   0  0  0  0  0  0  0  0  0  0  0  0
   -1.3580   22.9800   11.0290 C   0  0  0  0  0  0  0  0  0  0  0  0
   -0.7890   23.4550   12.3750 C   0  0  0  0  0  0  0  0  0  0  0  0
   -1.0280   24.9600   12.5730 C   0  0  0  0  0  0  0  0  0  0  0  0
   -0.4350   25.7740   11.4150 C   0  0  0  0  0  0  0  0  0  0  0  0
    4.3050   25.4260    8.1400 C   0  0  0  0  0  0  0  0  0  0  0  0
    5.1220   24.8780    7.1470 C   0  0  0  0  0  0  0  0  0  0  0  0
    5.2270   25.5380    5.9200 C   0  0  0  0  0  0  0  0  0  0  0  0
    4.5450   26.7230    5.6650 C   0  0  0  0  0  0  0  0  0  0  0  0
    1.0530   27.9250    7.5560 N   0  0  0  0  0  0  0  0  0  0  0  0
   -0.1360   28.2670    8.1110 C   0  0  0  0  0  0  0  0  0  0  0  0
   -0.8280   27.3650    8.8270 O   0  0  0  0  0  0  0  0  0  0  0  0
   -0.6390   29.5850    7.9500 C   0  0  0  0  0  0  0  0  0  0  0  0
   -1.7750   30.2480    8.4280 N   0  0  0  0  0  0  0  0  0  0  0  0
   -0.4490   31.7320    7.2670 N   0  0  0  0  0  0  0  0  0  0  0  0
    0.2010   30.5040    7.1980 C   0  0  0  0  0  0  0  0  0  0  0  0
    1.3970   30.1820    6.6050 N   0  0  0  0  0  0  0  0  0  0  0  0
    3.0240   28.4760    6.3600 N   0  0  0  0  0  0  0  0  0  0  0  0
    3.7010   27.2490    6.6670 C   0  0  0  0  0  0  0  0  0  0  0  0
    3.5960   26.6070    7.9130 C   0  0  0  0  0  0  0  0  0  0  0  0
   -2.3490   32.3260    8.2170 H   0  0  0  0  0  0  0  0  0  0  0  0
    0.8530   26.0820    9.1080 H   0  0  0  0  0  0  0  0  0  0  0  0
   -0.4440   25.5380    7.9150 H   0  0  0  0  0  0  0  0  0  0  0  0
   -2.0650   25.5300   10.0060 H   0  0  0  0  0  0  0  0  0  0  0  0
   -1.2720   23.4580    8.9160 H   0  0  0  0  0  0  0  0  0  0  0  0
    0.3190   23.5550    9.7790 H   0  0  0  0  0  0  0  0  0  0  0  0
   -2.4620   23.1080   11.0440 H   0  0  0  0  0  0  0  0  0  0  0  0
   -1.1230   21.8990   10.8950 H   0  0  0  0  0  0  0  0  0  0  0  0
   -1.2770   22.8900   13.2020 H   0  0  0  0  0  0  0  0  0  0  0  0
    0.3070   23.2530   12.3970 H   0  0  0  0  0  0  0  0  0  0  0  0
   -2.1220   25.1550   12.6570 H   0  0  0  0  0  0  0  0  0  0  0  0
   -0.5430   25.2830   13.5240 H   0  0  0  0  0  0  0  0  0  0  0  0
    0.6770   25.6650   11.4420 H   0  0  0  0  0  0  0  0  0  0  0  0
   -0.6870   26.8490   11.5570 H   0  0  0  0  0  0  0  0  0  0  0  0
    4.2020   24.9170    9.1020 H   0  0  0  0  0  0  0  0  0  0  0  0
    5.6490   23.9410    7.3300 H   0  0  0  0  0  0  0  0  0  0  0  0
    4.6560   27.2490    4.7140 H   0  0  0  0  0  0  0  0  0  0  0  0
   -0.1740   32.6090    6.8000 H   0  0  0  0  0  0  0  0  0  0  0  0
    3.5510   29.1180    5.7240 H   0  0  0  0  0  0  0  0  0  0  0  0
    2.9590   27.0030    8.7050 H   0  0  0  0  0  0  0  0  0  0  0  0
    6.2950   24.8010    4.7240 S   0  0  0  0  0  0  0  0  0  0  0  0
    5.3110   24.8260    3.2060 C   0  0  0  0  0  0  0  0  0  0  0  0
    5.6850   23.9960    2.5570 H   0  0  0  0  0  0  0  0  0  0  0  0
    4.2300   24.6590    3.4090 H   0  0  0  0  0  0  0  0  0  0  0  0
    5.4430   25.7910    2.6680 H   0  0  0  0  0  0  0  0  0  0  0  0
  1 14  2  0  0  0  0
  1 21  1  0  0  0  0
  1 22  1  0  0  0  0
  2 18  2  0  0  0  0
  2 19  1  0  0  0  0
  2 25  1  0  0  0  0
  3  4  1  0  0  0  0
  3 16  1  0  0  0  0
  3 26  1  0  0  0  0
  3 27  1  0  0  0  0
  4  5  1  0  0  0  0
  4  9  1  0  0  0  0
  4 28  1  0  0  0  0
  5  6  1  0  0  0  0
  5 29  1  0  0  0  0
  5 30  1  0  0  0  0
  6  7  1  0  0  0  0
  6 31  1  0  0  0  0
  6 32  1  0  0  0  0
  7  8  1  0  0  0  0
  7 33  1  0  0  0  0
  7 34  1  0  0  0  0
  8  9  1  0  0  0  0
  8 35  1  0  0  0  0
  8 36  1  0  0  0  0
  9 37  1  0  0  0  0
  9 38  1  0  0  0  0
 10 11  2  0  0  0  0
 10 24  1  0  0  0  0
 10 39  1  0  0  0  0
 11 12  1  0  0  0  0
 11 40  1  0  0  0  0
 12 13  2  0  0  0  0
 12 45  1  0  0  0  0
 13 23  1  0  0  0  0
 13 41  1  0  0  0  0
 14 15  1  0  0  0  0
 15 16  1  0  0  0  0
 15 17  2  0  0  0  0
 17 18  1  0  0  0  0
 17 20  1  0  0  0  0
 19 20  1  0  0  0  0
 19 42  1  0  0  0  0
 20 21  2  0  0  0  0
 22 23  1  0  0  0  0
 22 43  1  0  0  0  0
 23 24  2  0  0  0  0
 24 44  1  0  0  0  0
 45 46  1  0  0  0  0
 46 47  1  0  0  0  0
 46 48  1  0  0  0  0
 46 49  1  0  0  0  0
M  END
$$$$
