18639-1
 OpenBabel02232411163D
Structure written by MMmdl.
 48 49  0  0  0  0  0  0  0  0999 V2000
   23.2030   10.7840   29.0630 C   0  0  0  0  0  0  0  0  0  0  0  0
   23.4810   11.0370   30.5300 C   0  0  0  0  0  0  0  0  0  0  0  0
   22.2180   11.1500   31.2890 O   0  0  0  0  0  0  0  0  0  0  0  0
   21.5580   10.0230   31.6370 C   0  0  0  0  0  0  0  0  0  0  0  0
   22.0250    8.8240   31.2190 N   0  0  0  0  0  0  0  0  0  0  0  0
   21.2800    7.7000   31.5340 C   0  0  0  0  0  0  0  0  0  0  0  0
   20.1130    7.7560   32.2880 C   0  0  0  0  0  0  0  0  0  0  0  0
   19.6440    9.0160   32.7470 C   0  0  0  0  0  0  0  0  0  0  0  0
   18.4900    9.0750   33.4860 N   0  0  0  0  0  0  0  0  0  0  0  0
   20.3740   10.2020   32.4140 C   0  0  0  0  0  0  0  0  0  0  0  0
   19.9800   11.5080   32.7730 C   0  0  0  0  0  0  0  0  0  0  0  0
   19.7060   12.6060   33.0290 N   0  0  0  0  0  0  0  0  0  0  0  0
   21.8540    6.5310   30.9820 N   0  0  0  0  0  0  0  0  0  0  0  0
   21.2490    5.2630   30.8810 C   0  0  0  0  0  0  0  0  0  0  0  0
   20.1520    5.0170   31.3360 O   0  0  0  0  0  0  0  0  0  0  0  0
   22.0730    4.2640   30.0750 C   0  0  0  0  0  0  0  0  0  0  0  0
   23.4390    3.9930   30.6320 C   0  0  0  0  0  0  0  0  0  0  0  0
   24.5370    4.8530   30.3140 C   0  0  0  0  0  0  0  0  0  0  0  0
   24.1820    5.9000   29.4710 O   0  0  0  0  0  0  0  0  0  0  0  0
   25.1360    6.9870   29.3100 C   0  0  0  0  0  0  0  0  0  0  0  0
   25.8150    4.6130   30.7920 C   0  0  0  0  0  0  0  0  0  0  0  0
   26.0440    3.4990   31.6270 C   0  0  0  0  0  0  0  0  0  0  0  0
   27.3950    3.2450   32.1340 N   0  3  0  0  0  0  0  0  0  0  0  0
   27.5260    2.4580   33.0590 O   0  5  0  0  0  0  0  0  0  0  0  0
   28.3370    3.8250   31.6070 O   0  0  0  0  0  0  0  0  0  0  0  0
   24.9710    2.6340   31.9470 C   0  0  0  0  0  0  0  0  0  0  0  0
   23.6780    2.8880   31.4340 C   0  0  0  0  0  0  0  0  0  0  0  0
   25.3160    1.5980   32.7620 O   0  0  0  0  0  0  0  0  0  0  0  0
   24.3160    0.5640   33.0040 C   0  0  0  0  0  0  0  0  0  0  0  0
   24.1630   10.8390   28.4920 H   0  0  0  0  0  0  0  0  0  0  0  0
   22.5070   11.5460   28.6450 H   0  0  0  0  0  0  0  0  0  0  0  0
   22.7620    9.7720   28.9050 H   0  0  0  0  0  0  0  0  0  0  0  0
   23.8920   12.0590   30.7120 H   0  0  0  0  0  0  0  0  0  0  0  0
   24.1160   10.2410   30.9810 H   0  0  0  0  0  0  0  0  0  0  0  0
   19.5440    6.8530   32.5150 H   0  0  0  0  0  0  0  0  0  0  0  0
   17.9840    8.2080   33.7530 H   0  0  0  0  0  0  0  0  0  0  0  0
   18.0980    9.9650   33.7930 H   0  0  0  0  0  0  0  0  0  0  0  0
   22.7770    6.6770   30.5000 H   0  0  0  0  0  0  0  0  0  0  0  0
   21.4980    3.3020   30.0120 H   0  0  0  0  0  0  0  0  0  0  0  0
   22.1830    4.6820   29.0340 H   0  0  0  0  0  0  0  0  0  0  0  0
   25.4490    7.3830   30.2990 H   0  0  0  0  0  0  0  0  0  0  0  0
   25.9930    6.6310   28.7000 H   0  0  0  0  0  0  0  0  0  0  0  0
   24.5210    7.7330   28.7560 H   0  0  0  0  0  0  0  0  0  0  0  0
   26.6560    5.2640   30.5240 H   0  0  0  0  0  0  0  0  0  0  0  0
   22.8610    2.2010   31.6670 H   0  0  0  0  0  0  0  0  0  0  0  0
   24.8990   -0.1680   33.6120 H   0  0  0  0  0  0  0  0  0  0  0  0
   23.4670    0.9810   33.5860 H   0  0  0  0  0  0  0  0  0  0  0  0
   23.9920    0.1130   32.0400 H   0  0  0  0  0  0  0  0  0  0  0  0
  1  2  1  0  0  0  0
  1 30  1  0  0  0  0
  1 31  1  0  0  0  0
  1 32  1  0  0  0  0
  2  3  1  0  0  0  0
  2 33  1  0  0  0  0
  2 34  1  0  0  0  0
  3  4  1  0  0  0  0
  4 10  2  0  0  0  0
  4  5  1  0  0  0  0
  5  6  2  0  0  0  0
  6  7  1  0  0  0  0
  6 13  1  0  0  0  0
  7  8  2  0  0  0  0
  7 35  1  0  0  0  0
  8  9  1  0  0  0  0
  8 10  1  0  0  0  0
  9 36  1  0  0  0  0
  9 37  1  0  0  0  0
 10 11  1  0  0  0  0
 11 12  3  0  0  0  0
 13 14  1  0  0  0  0
 13 38  1  0  0  0  0
 14 15  2  0  0  0  0
 14 16  1  0  0  0  0
 16 17  1  0  0  0  0
 16 39  1  0  0  0  0
 16 40  1  0  0  0  0
 17 27  2  0  0  0  0
 17 18  1  0  0  0  0
 18 19  1  0  0  0  0
 18 21  2  0  0  0  0
 19 20  1  0  0  0  0
 20 41  1  0  0  0  0
 20 42  1  0  0  0  0
 20 43  1  0  0  0  0
 21 22  1  0  0  0  0
 21 44  1  0  0  0  0
 22 23  1  0  0  0  0
 22 26  2  0  0  0  0
 23 24  1  0  0  0  0
 23 25  2  0  0  0  0
 26 27  1  0  0  0  0
 26 28  1  0  0  0  0
 27 45  1  0  0  0  0
 28 29  1  0  0  0  0
 29 46  1  0  0  0  0
 29 47  1  0  0  0  0
 29 48  1  0  0  0  0
M  CHG  2  23   1  24  -1
M  END
$$$$
