p38a_2x
 OpenBabel02232411163D
Structure written by MMmdl.
 43 46  0  0  1  0  0  0  0  0999 V2000
   36.3530   36.0090   15.8230 C   0  0  0  0  0  0  0  0  0  0  0  0
   34.6030   35.0230   21.4240 C   0  0  0  0  0  0  0  0  0  0  0  0
   35.6500   35.5510   16.9330 C   0  0  0  0  0  0  0  0  0  0  0  0
   34.4020   39.1170   23.9850 C   0  0  0  0  0  0  0  0  0  0  0  0
   34.8170   37.8870   21.5590 C   0  0  0  0  0  0  0  0  0  0  0  0
   35.1580   37.2130   20.3350 C   0  0  0  0  0  0  0  0  0  0  0  0
   37.6460   36.4930   16.0570 C   0  0  0  0  0  0  0  0  0  0  0  0
   38.2500   36.4950   17.3180 C   0  0  0  0  0  0  0  0  0  0  0  0
   37.5110   36.0640   18.4240 C   0  0  0  0  0  0  0  0  0  0  0  0
   34.5340   37.1300   22.7350 C   0  0  0  0  0  0  0  0  0  0  0  0
   34.7620   39.3020   21.6760 C   0  0  0  0  0  0  0  0  0  0  0  0
   35.0990   35.8620   20.3000 C   0  0  0  0  0  0  0  0  0  0  0  0
   36.2080   35.5940   18.2270 C   0  0  0  0  0  0  0  0  0  0  0  0
   34.1400   34.9640   23.9070 C   0  0  0  0  0  0  0  0  0  0  0  0
   34.4310   35.0460   16.7980 F   0  0  0  0  0  0  0  0  0  0  0  0
   35.4210   35.0230   19.2350 O   0  0  0  0  0  0  0  0  0  0  0  0
   34.5460   39.9290   22.8430 N   0  0  0  0  0  0  0  0  0  0  0  0
   34.3420   33.8420   21.3590 O   0  0  0  0  0  0  0  0  0  0  0  0
   34.4340   35.7320   22.6650 N   0  0  0  0  0  0  0  0  0  0  0  0
   34.3330   37.7380   23.9510 N   0  0  0  0  0  0  0  0  0  0  0  0
   34.3640   39.7570   25.2040 N   0  0  0  0  0  0  0  0  0  0  0  0
   35.9110   36.0160   14.8240 H   0  0  0  0  0  0  0  0  0  0  0  0
   35.4750   37.8210   19.4830 H   0  0  0  0  0  0  0  0  0  0  0  0
   39.2740   36.8600   17.4460 H   0  0  0  0  0  0  0  0  0  0  0  0
   37.9470   36.1210   19.4240 H   0  0  0  0  0  0  0  0  0  0  0  0
   34.8940   39.9340   20.7820 H   0  0  0  0  0  0  0  0  0  0  0  0
   34.8970   35.2140   24.7000 H   0  0  0  0  0  0  0  0  0  0  0  0
   33.1200   35.2320   24.2950 H   0  0  0  0  0  0  0  0  0  0  0  0
   34.1790   33.8630   23.7010 H   0  0  0  0  0  0  0  0  0  0  0  0
   34.1880   40.7820   25.2410 H   0  0  0  0  0  0  0  0  0  0  0  0
   38.3150   37.0100   15.0290 F   0  0  0  0  0  0  0  0  0  0  0  0
   32.6480   39.0960   28.3100 O   0  0  0  0  0  0  0  0  0  0  0  0
   33.6880   40.0550   28.6530 C   0  0  0  0  0  0  0  0  0  0  0  0
   34.8310   39.8590   27.6450 C   0  0  0  0  0  0  0  0  0  0  0  0
   34.2180   39.0280   26.4900 C   0  0  1  0  0  0  0  0  0  0  0  0
   32.7260   38.8400   26.8870 C   0  0  0  0  0  0  0  0  0  0  0  0
   33.9710   39.7980   29.6960 H   0  0  0  0  0  0  0  0  0  0  0  0
   33.2500   41.0750   28.5790 H   0  0  0  0  0  0  0  0  0  0  0  0
   35.2150   40.8460   27.2930 H   0  0  0  0  0  0  0  0  0  0  0  0
   35.6860   39.3090   28.1010 H   0  0  0  0  0  0  0  0  0  0  0  0
   34.7370   38.0340   26.4080 H   0  0  0  0  0  0  0  0  0  0  0  0
   32.3770   37.7920   26.7680 H   0  0  0  0  0  0  0  0  0  0  0  0
   32.0650   39.5700   26.3690 H   0  0  0  0  0  0  0  0  0  0  0  0
  1  3  2  0  0  0  0
  1  7  1  0  0  0  0
  1 22  1  0  0  0  0
  2 12  1  0  0  0  0
  2 18  2  0  0  0  0
  2 19  1  0  0  0  0
  3 13  1  0  0  0  0
  3 15  1  0  0  0  0
  4 17  2  0  0  0  0
  4 20  1  0  0  0  0
  4 21  1  0  0  0  0
  5  6  1  0  0  0  0
  5 10  1  0  0  0  0
  5 11  2  0  0  0  0
  6 12  2  0  0  0  0
  6 23  1  0  0  0  0
  7  8  2  0  0  0  0
  7 31  1  0  0  0  0
  8  9  1  0  0  0  0
  8 24  1  0  0  0  0
  9 13  2  0  0  0  0
  9 25  1  0  0  0  0
 10 19  1  0  0  0  0
 10 20  2  0  0  0  0
 11 17  1  0  0  0  0
 11 26  1  0  0  0  0
 12 16  1  0  0  0  0
 13 16  1  0  0  0  0
 14 19  1  0  0  0  0
 14 27  1  0  0  0  0
 14 28  1  0  0  0  0
 14 29  1  0  0  0  0
 21 30  1  0  0  0  0
 21 35  1  0  0  0  0
 32 33  1  0  0  0  0
 32 36  1  0  0  0  0
 33 34  1  0  0  0  0
 33 37  1  0  0  0  0
 33 38  1  0  0  0  0
 34 35  1  0  0  0  0
 34 39  1  0  0  0  0
 34 40  1  0  0  0  0
 35 36  1  0  0  0  0
 35 41  1  1  0  0  0
 36 42  1  0  0  0  0
 36 43  1  0  0  0  0
M  END
$$$$
