CAT-13i
 OpenBabel02232411143D
Structure written by MMmdl.
 46 49  0  0  1  0  0  0  0  0999 V2000
   11.6430   -2.1400    1.2430 C   0  0  0  0  0  0  0  0  0  0  0  0
   12.9880   -2.2720    0.6480 N   0  0  0  0  0  0  0  0  0  0  0  0
   14.1670   -2.3640    1.3890 C   0  0  0  0  0  0  0  0  0  0  0  0
   14.2920   -2.4210    2.7450 N   0  0  0  0  0  0  0  0  0  0  0  0
   15.2650   -2.4450    0.5270 N   0  3  0  0  0  0  0  0  0  0  0  0
   14.8010   -2.7570   -0.8780 C   0  0  2  0  0  0  0  0  0  0  0  0
   14.9790   -4.2590   -1.1720 C   0  0  0  0  0  0  0  0  0  0  0  0
   13.9340   -5.1240   -0.4870 C   0  0  0  0  0  0  0  0  0  0  0  0
   14.2930   -6.4780    0.1090 C   0  0  0  0  0  0  0  0  0  0  0  0
   13.9250   -5.3340    1.0250 C   0  0  0  0  0  0  0  0  0  0  0  0
   15.4450   -1.7530   -1.8150 C   0  0  0  0  0  0  0  0  0  0  0  0
   16.2760   -2.1260   -2.8770 C   0  0  0  0  0  0  0  0  0  0  0  0
   16.7850   -1.1380   -3.7290 C   0  0  0  0  0  0  0  0  0  0  0  0
   16.4950    0.2120   -3.5200 C   0  0  0  0  0  0  0  0  0  0  0  0
   15.7050    0.6010   -2.4260 C   0  0  0  0  0  0  0  0  0  0  0  0
   15.4160    2.0230   -2.1290 C   0  0  0  0  0  0  0  0  0  0  0  0
   15.0220    2.9180   -3.1350 C   0  0  0  0  0  0  0  0  0  0  0  0
   14.6630    4.2310   -2.8080 C   0  0  0  0  0  0  0  0  0  0  0  0
   14.6740    4.6640   -1.4780 C   0  0  0  0  0  0  0  0  0  0  0  0
   15.0890    3.7680   -0.4900 C   0  0  0  0  0  0  0  0  0  0  0  0
   15.0480    4.2450    1.1670 Cl  0  0  0  0  0  0  0  0  0  0  0  0
   15.4880    2.4680   -0.7970 C   0  0  0  0  0  0  0  0  0  0  0  0
   15.1710   -0.3930   -1.5930 C   0  0  0  0  0  0  0  0  0  0  0  0
   13.2690   -2.4520   -0.7890 C   0  0  0  0  0  0  0  0  0  0  0  0
   12.4240   -2.3450   -1.6190 O   0  0  0  0  0  0  0  0  0  0  0  0
   11.6500   -2.4600    2.3170 H   0  0  0  0  0  0  0  0  0  0  0  0
   11.3210   -1.0670    1.1720 H   0  0  0  0  0  0  0  0  0  0  0  0
   10.9240   -2.7950    0.6820 H   0  0  0  0  0  0  0  0  0  0  0  0
   13.5760   -2.0040    3.3860 H   0  0  0  0  0  0  0  0  0  0  0  0
   16.1700   -2.8360    0.8960 H   0  0  0  0  0  0  0  0  0  0  0  0
   16.0110   -4.5650   -0.8590 H   0  0  0  0  0  0  0  0  0  0  0  0
   14.8840   -4.4320   -2.2760 H   0  0  0  0  0  0  0  0  0  0  0  0
   12.9550   -5.0610   -0.9870 H   0  0  0  0  0  0  0  0  0  0  0  0
   13.5740   -7.3020   -0.0150 H   0  0  0  0  0  0  0  0  0  0  0  0
   15.3330   -6.8120    0.0660 H   0  0  0  0  0  0  0  0  0  0  0  0
   14.7080   -4.8820    1.6420 H   0  0  0  0  0  0  0  0  0  0  0  0
   12.9610   -5.3540    1.5490 H   0  0  0  0  0  0  0  0  0  0  0  0
   16.5330   -3.1710   -3.0460 H   0  0  0  0  0  0  0  0  0  0  0  0
   17.4260   -1.4250   -4.5680 H   0  0  0  0  0  0  0  0  0  0  0  0
   16.8880    0.9630   -4.2110 H   0  0  0  0  0  0  0  0  0  0  0  0
   14.9770    2.5890   -4.1780 H   0  0  0  0  0  0  0  0  0  0  0  0
   14.3460    4.9180   -3.6020 H   0  0  0  0  0  0  0  0  0  0  0  0
   14.3400    5.6720   -1.2210 H   0  0  0  0  0  0  0  0  0  0  0  0
   15.8370    1.7910   -0.0160 H   0  0  0  0  0  0  0  0  0  0  0  0
   14.5340   -0.1070   -0.7570 H   0  0  0  0  0  0  0  0  0  0  0  0
   15.2640   -2.4040    3.1590 H   0  0  0  0  0  0  0  0  0  0  0  0
  1  2  1  0  0  0  0
  1 26  1  0  0  0  0
  1 27  1  0  0  0  0
  1 28  1  0  0  0  0
  2  3  1  0  0  0  0
  2 24  1  0  0  0  0
  3  4  1  0  0  0  0
  3  5  2  0  0  0  0
  4 29  1  0  0  0  0
  4 46  1  0  0  0  0
  5  6  1  0  0  0  0
  5 30  1  0  0  0  0
  6  7  1  6  0  0  0
  6 11  1  0  0  0  0
  6 24  1  0  0  0  0
  7  8  1  0  0  0  0
  7 31  1  0  0  0  0
  7 32  1  0  0  0  0
  8  9  1  0  0  0  0
  8 10  1  0  0  0  0
  8 33  1  0  0  0  0
  9 10  1  0  0  0  0
  9 34  1  0  0  0  0
  9 35  1  0  0  0  0
 10 36  1  0  0  0  0
 10 37  1  0  0  0  0
 11 12  2  0  0  0  0
 11 23  1  0  0  0  0
 12 13  1  0  0  0  0
 12 38  1  0  0  0  0
 13 14  2  0  0  0  0
 13 39  1  0  0  0  0
 14 15  1  0  0  0  0
 14 40  1  0  0  0  0
 15 16  1  0  0  0  0
 15 23  2  0  0  0  0
 16 17  2  0  0  0  0
 16 22  1  0  0  0  0
 17 18  1  0  0  0  0
 17 41  1  0  0  0  0
 18 19  2  0  0  0  0
 18 42  1  0  0  0  0
 19 20  1  0  0  0  0
 19 43  1  0  0  0  0
 20 21  1  0  0  0  0
 20 22  2  0  0  0  0
 22 44  1  0  0  0  0
 23 45  1  0  0  0  0
 24 25  2  0  0  0  0
M  CHG  1   5   1
M  END
$$$$
