CAT-13i
 OpenBabel02232411143D
Structure written by MMmdl.
 46 49  0  0  1  0  0  0  0  0999 V2000
   11.6310   -2.2150    1.2380 C   0  0  0  0  0  0  0  0  0  0  0  0
   12.9880   -2.1880    0.6520 N   0  0  0  0  0  0  0  0  0  0  0  0
   14.1620   -2.3140    1.3960 C   0  0  0  0  0  0  0  0  0  0  0  0
   14.2870   -2.3920    2.7490 N   0  0  0  0  0  0  0  0  0  0  0  0
   15.2650   -2.3770    0.5370 N   0  3  0  0  0  0  0  0  0  0  0  0
   14.8050   -2.6940   -0.8680 C   0  0  2  0  0  0  0  0  0  0  0  0
   14.9660   -4.2020   -1.1500 C   0  0  0  0  0  0  0  0  0  0  0  0
   13.9060   -5.0520   -0.4720 C   0  0  0  0  0  0  0  0  0  0  0  0
   14.2430   -6.4190    0.1090 C   0  0  0  0  0  0  0  0  0  0  0  0
   13.8990   -5.2770    1.0380 C   0  0  0  0  0  0  0  0  0  0  0  0
   15.4720   -1.7150   -1.8140 C   0  0  0  0  0  0  0  0  0  0  0  0
   16.3570   -2.1270   -2.8150 C   0  0  0  0  0  0  0  0  0  0  0  0
   16.8800   -1.1790   -3.7030 C   0  0  0  0  0  0  0  0  0  0  0  0
   16.5440    0.1710   -3.5890 C   0  0  0  0  0  0  0  0  0  0  0  0
   15.7100    0.6030   -2.5440 C   0  0  0  0  0  0  0  0  0  0  0  0
   15.4040    2.0380   -2.3450 C   0  0  0  0  0  0  0  0  0  0  0  0
   15.5580    2.6050   -1.0690 C   0  0  0  0  0  0  0  0  0  0  0  0
   15.1930    3.9330   -0.8320 C   0  0  0  0  0  0  0  0  0  0  0  0
   14.6930    4.7200   -1.8720 C   0  0  0  0  0  0  0  0  0  0  0  0
   14.6020    4.1620   -3.1510 C   0  0  0  0  0  0  0  0  0  0  0  0
   14.0430    5.1490   -4.4420 Cl  0  0  0  0  0  0  0  0  0  0  0  0
   14.9430    2.8320   -3.4080 C   0  0  0  0  0  0  0  0  0  0  0  0
   15.1710   -0.3490   -1.6670 C   0  0  0  0  0  0  0  0  0  0  0  0
   13.2750   -2.3730   -0.7870 C   0  0  0  0  0  0  0  0  0  0  0  0
   12.4360   -2.2520   -1.6200 O   0  0  0  0  0  0  0  0  0  0  0  0
   11.6700   -2.4390    2.3350 H   0  0  0  0  0  0  0  0  0  0  0  0
   11.1510   -1.2120    1.0810 H   0  0  0  0  0  0  0  0  0  0  0  0
   11.0230   -3.0150    0.7350 H   0  0  0  0  0  0  0  0  0  0  0  0
   13.5690   -1.9980    3.4020 H   0  0  0  0  0  0  0  0  0  0  0  0
   16.1680   -2.7780    0.9060 H   0  0  0  0  0  0  0  0  0  0  0  0
   15.9910   -4.5170   -0.8210 H   0  0  0  0  0  0  0  0  0  0  0  0
   14.8840   -4.3820   -2.2540 H   0  0  0  0  0  0  0  0  0  0  0  0
   12.9270   -4.9680   -0.9680 H   0  0  0  0  0  0  0  0  0  0  0  0
   13.5100   -7.2280   -0.0200 H   0  0  0  0  0  0  0  0  0  0  0  0
   15.2780   -6.7690    0.0610 H   0  0  0  0  0  0  0  0  0  0  0  0
   14.6940   -4.8450    1.6550 H   0  0  0  0  0  0  0  0  0  0  0  0
   12.9370   -5.2860    1.5670 H   0  0  0  0  0  0  0  0  0  0  0  0
   16.6500   -3.1730   -2.9080 H   0  0  0  0  0  0  0  0  0  0  0  0
   17.5680   -1.4960   -4.4920 H   0  0  0  0  0  0  0  0  0  0  0  0
   16.9380    0.8900   -4.3120 H   0  0  0  0  0  0  0  0  0  0  0  0
   15.9530    1.9980   -0.2530 H   0  0  0  0  0  0  0  0  0  0  0  0
   15.2910    4.3440    0.1780 H   0  0  0  0  0  0  0  0  0  0  0  0
   14.3610    5.7430   -1.6790 H   0  0  0  0  0  0  0  0  0  0  0  0
   14.8420    2.4090   -4.4120 H   0  0  0  0  0  0  0  0  0  0  0  0
   14.5190   -0.0260   -0.8540 H   0  0  0  0  0  0  0  0  0  0  0  0
   15.2590   -2.3830    3.1660 H   0  0  0  0  0  0  0  0  0  0  0  0
  1  2  1  0  0  0  0
  1 26  1  0  0  0  0
  1 27  1  0  0  0  0
  1 28  1  0  0  0  0
  2  3  1  0  0  0  0
  2 24  1  0  0  0  0
  3  4  1  0  0  0  0
  3  5  2  0  0  0  0
  4 29  1  0  0  0  0
  4 46  1  0  0  0  0
  5  6  1  0  0  0  0
  5 30  1  0  0  0  0
  6  7  1  6  0  0  0
  6 11  1  0  0  0  0
  6 24  1  0  0  0  0
  7  8  1  0  0  0  0
  7 31  1  0  0  0  0
  7 32  1  0  0  0  0
  8  9  1  0  0  0  0
  8 10  1  0  0  0  0
  8 33  1  0  0  0  0
  9 10  1  0  0  0  0
  9 34  1  0  0  0  0
  9 35  1  0  0  0  0
 10 36  1  0  0  0  0
 10 37  1  0  0  0  0
 11 12  2  0  0  0  0
 11 23  1  0  0  0  0
 12 13  1  0  0  0  0
 12 38  1  0  0  0  0
 13 14  2  0  0  0  0
 13 39  1  0  0  0  0
 14 15  1  0  0  0  0
 14 40  1  0  0  0  0
 15 16  1  0  0  0  0
 15 23  2  0  0  0  0
 16 17  2  0  0  0  0
 16 22  1  0  0  0  0
 17 18  1  0  0  0  0
 17 41  1  0  0  0  0
 18 19  2  0  0  0  0
 18 42  1  0  0  0  0
 19 20  1  0  0  0  0
 19 43  1  0  0  0  0
 20 21  1  0  0  0  0
 20 22  2  0  0  0  0
 22 44  1  0  0  0  0
 23 45  1  0  0  0  0
 24 25  2  0  0  0  0
M  CHG  1   5   1
M  END
$$$$
