18627-1
 OpenBabel02232411163D
Structure written by MMmdl.
 38 39  0  0  0  0  0  0  0  0999 V2000
   23.2440   10.8330   29.0540 C   0  0  0  0  0  0  0  0  0  0  0  0
   23.5110   11.0600   30.5260 C   0  0  0  0  0  0  0  0  0  0  0  0
   22.2410   11.1390   31.2800 O   0  0  0  0  0  0  0  0  0  0  0  0
   21.5910   10.0030   31.6120 C   0  0  0  0  0  0  0  0  0  0  0  0
   22.0650    8.8100   31.1850 N   0  0  0  0  0  0  0  0  0  0  0  0
   21.3290    7.6780   31.4980 C   0  0  0  0  0  0  0  0  0  0  0  0
   20.1640    7.7220   32.2570 C   0  0  0  0  0  0  0  0  0  0  0  0
   19.6820    8.9780   32.7180 C   0  0  0  0  0  0  0  0  0  0  0  0
   18.5240    9.0330   33.4500 N   0  0  0  0  0  0  0  0  0  0  0  0
   20.4060   10.1690   32.3910 C   0  0  0  0  0  0  0  0  0  0  0  0
   20.0070   11.4710   32.7600 C   0  0  0  0  0  0  0  0  0  0  0  0
   19.7310   12.5670   33.0230 N   0  0  0  0  0  0  0  0  0  0  0  0
   21.9070    6.5140   30.9340 N   0  0  0  0  0  0  0  0  0  0  0  0
   21.3510    5.2120   30.9030 C   0  0  0  0  0  0  0  0  0  0  0  0
   20.2990    4.9430   31.4400 O   0  0  0  0  0  0  0  0  0  0  0  0
   22.1680    4.2270   30.0800 C   0  0  0  0  0  0  0  0  0  0  0  0
   23.4990    3.9030   30.7020 C   0  0  0  0  0  0  0  0  0  0  0  0
   24.6350    4.6640   30.3840 C   0  0  0  0  0  0  0  0  0  0  0  0
   25.8690    4.3790   30.9730 C   0  0  0  0  0  0  0  0  0  0  0  0
   25.9540    3.3190   31.8780 C   0  0  0  0  0  0  0  0  0  0  0  0
   27.4720    2.9630   32.6120 Cl  0  0  0  0  0  0  0  0  0  0  0  0
   24.8440    2.5320   32.1940 C   0  0  0  0  0  0  0  0  0  0  0  0
   23.6170    2.8240   31.5940 C   0  0  0  0  0  0  0  0  0  0  0  0
   22.8950    9.7910   28.8590 H   0  0  0  0  0  0  0  0  0  0  0  0
   22.4810   11.5440   28.6650 H   0  0  0  0  0  0  0  0  0  0  0  0
   24.1900   10.9910   28.4790 H   0  0  0  0  0  0  0  0  0  0  0  0
   23.9010   12.0860   30.7320 H   0  0  0  0  0  0  0  0  0  0  0  0
   24.1570   10.2670   30.9670 H   0  0  0  0  0  0  0  0  0  0  0  0
   19.6050    6.8140   32.4880 H   0  0  0  0  0  0  0  0  0  0  0  0
   18.0210    8.1670   33.7250 H   0  0  0  0  0  0  0  0  0  0  0  0
   18.1320    9.9230   33.7590 H   0  0  0  0  0  0  0  0  0  0  0  0
   22.8120    6.6720   30.4450 H   0  0  0  0  0  0  0  0  0  0  0  0
   21.5720    3.2830   29.9640 H   0  0  0  0  0  0  0  0  0  0  0  0
   22.3240    4.6630   29.0570 H   0  0  0  0  0  0  0  0  0  0  0  0
   24.5800    5.4830   29.6600 H   0  0  0  0  0  0  0  0  0  0  0  0
   26.7490    4.9780   30.7180 H   0  0  0  0  0  0  0  0  0  0  0  0
   24.9300    1.6930   32.8930 H   0  0  0  0  0  0  0  0  0  0  0  0
   22.7550    2.1910   31.8190 H   0  0  0  0  0  0  0  0  0  0  0  0
  1  2  1  0  0  0  0
  1 24  1  0  0  0  0
  1 25  1  0  0  0  0
  1 26  1  0  0  0  0
  2  3  1  0  0  0  0
  2 27  1  0  0  0  0
  2 28  1  0  0  0  0
  3  4  1  0  0  0  0
  4 10  2  0  0  0  0
  4  5  1  0  0  0  0
  5  6  2  0  0  0  0
  6  7  1  0  0  0  0
  6 13  1  0  0  0  0
  7  8  2  0  0  0  0
  7 29  1  0  0  0  0
  8  9  1  0  0  0  0
  8 10  1  0  0  0  0
  9 30  1  0  0  0  0
  9 31  1  0  0  0  0
 10 11  1  0  0  0  0
 11 12  3  0  0  0  0
 13 14  1  0  0  0  0
 13 32  1  0  0  0  0
 14 15  2  0  0  0  0
 14 16  1  0  0  0  0
 16 17  1  0  0  0  0
 16 33  1  0  0  0  0
 16 34  1  0  0  0  0
 17 23  2  0  0  0  0
 17 18  1  0  0  0  0
 18 19  2  0  0  0  0
 18 35  1  0  0  0  0
 19 20  1  0  0  0  0
 19 36  1  0  0  0  0
 20 21  1  0  0  0  0
 20 22  2  0  0  0  0
 22 23  1  0  0  0  0
 22 37  1  0  0  0  0
 23 38  1  0  0  0  0
M  END
$$$$
