CAT-13h
 OpenBabel02232411143D
Structure written by MMmdl.
 46 49  0  0  1  0  0  0  0  0999 V2000
   11.8140   -1.6780    1.0440 C   0  0  0  0  0  0  0  0  0  0  0  0
   13.1980   -1.5910    0.5330 N   0  0  0  0  0  0  0  0  0  0  0  0
   14.3350   -1.7810    1.3120 C   0  0  0  0  0  0  0  0  0  0  0  0
   14.3780   -2.0740    2.6390 N   0  0  0  0  0  0  0  0  0  0  0  0
   15.4980   -1.7040    0.5090 N   0  3  0  0  0  0  0  0  0  0  0  0
   15.0940   -2.0160   -0.9180 C   0  0  1  0  0  0  0  0  0  0  0  0
   15.7080   -1.0150   -1.8870 C   0  0  0  0  0  0  0  0  0  0  0  0
   16.4200   -1.3310   -3.0470 C   0  0  0  0  0  0  0  0  0  0  0  0
   16.7430   -0.3360   -3.9780 C   0  0  0  0  0  0  0  0  0  0  0  0
   16.4010    0.9940   -3.7520 C   0  0  0  0  0  0  0  0  0  0  0  0
   15.7610    1.3480   -2.5510 C   0  0  0  0  0  0  0  0  0  0  0  0
   15.3900    2.7470   -2.2500 C   0  0  0  0  0  0  0  0  0  0  0  0
   14.8550    3.5830   -3.2430 C   0  0  0  0  0  0  0  0  0  0  0  0
   14.3980    4.8630   -2.9130 C   0  0  0  0  0  0  0  0  0  0  0  0
   14.4320    5.3070   -1.5890 C   0  0  0  0  0  0  0  0  0  0  0  0
   14.9730    4.4670   -0.6130 C   0  0  0  0  0  0  0  0  0  0  0  0
   14.9220    4.9410    1.0450 Cl  0  0  0  0  0  0  0  0  0  0  0  0
   15.5000    3.2180   -0.9310 C   0  0  0  0  0  0  0  0  0  0  0  0
   15.4160    0.3400   -1.6390 C   0  0  0  0  0  0  0  0  0  0  0  0
   15.1970   -3.5330   -1.0990 C   0  0  0  0  0  0  0  0  0  0  0  0
   14.5270   -4.3690   -0.0170 C   0  0  0  0  0  0  0  0  0  0  0  0
   15.1350   -4.0910   -2.5090 C   0  0  0  0  0  0  0  0  0  0  0  0
   16.4270   -4.1830   -1.7250 C   0  0  0  0  0  0  0  0  0  0  0  0
   13.5520   -1.7090   -0.9020 C   0  0  0  0  0  0  0  0  0  0  0  0
   12.7480   -1.5680   -1.7650 O   0  0  0  0  0  0  0  0  0  0  0  0
   11.7990   -1.9730    2.1250 H   0  0  0  0  0  0  0  0  0  0  0  0
   11.3180   -0.6780    0.9230 H   0  0  0  0  0  0  0  0  0  0  0  0
   11.2460   -2.4560    0.4630 H   0  0  0  0  0  0  0  0  0  0  0  0
   13.6370   -1.7610    3.3120 H   0  0  0  0  0  0  0  0  0  0  0  0
   16.3430   -2.2320    0.8780 H   0  0  0  0  0  0  0  0  0  0  0  0
   16.7480   -2.3400   -3.2890 H   0  0  0  0  0  0  0  0  0  0  0  0
   17.2640   -0.6260   -4.8980 H   0  0  0  0  0  0  0  0  0  0  0  0
   16.6280    1.7450   -4.5120 H   0  0  0  0  0  0  0  0  0  0  0  0
   14.7690    3.2310   -4.2760 H   0  0  0  0  0  0  0  0  0  0  0  0
   13.9820    5.5090   -3.6960 H   0  0  0  0  0  0  0  0  0  0  0  0
   14.0160    6.2800   -1.3270 H   0  0  0  0  0  0  0  0  0  0  0  0
   15.9690    2.5980   -0.1630 H   0  0  0  0  0  0  0  0  0  0  0  0
   14.8960    0.6050   -0.7200 H   0  0  0  0  0  0  0  0  0  0  0  0
   15.0740   -4.2650    0.9490 H   0  0  0  0  0  0  0  0  0  0  0  0
   13.4550   -4.1200    0.1180 H   0  0  0  0  0  0  0  0  0  0  0  0
   14.5680   -5.4530   -0.2990 H   0  0  0  0  0  0  0  0  0  0  0  0
   14.5210   -4.9870   -2.6130 H   0  0  0  0  0  0  0  0  0  0  0  0
   15.0440   -3.4380   -3.3830 H   0  0  0  0  0  0  0  0  0  0  0  0
   17.2910   -3.5580   -1.9650 H   0  0  0  0  0  0  0  0  0  0  0  0
   16.7390   -5.1580   -1.3260 H   0  0  0  0  0  0  0  0  0  0  0  0
   15.3250   -2.1490    3.1060 H   0  0  0  0  0  0  0  0  0  0  0  0
  1  2  1  0  0  0  0
  1 26  1  0  0  0  0
  1 27  1  0  0  0  0
  1 28  1  0  0  0  0
  2  3  1  0  0  0  0
  2 24  1  0  0  0  0
  3  4  1  0  0  0  0
  3  5  2  0  0  0  0
  4 29  1  0  0  0  0
  4 46  1  0  0  0  0
  5  6  1  0  0  0  0
  5 30  1  0  0  0  0
  6  7  1  6  0  0  0
  6 20  1  0  0  0  0
  6 24  1  0  0  0  0
  7  8  2  0  0  0  0
  7 19  1  0  0  0  0
  8  9  1  0  0  0  0
  8 31  1  0  0  0  0
  9 10  2  0  0  0  0
  9 32  1  0  0  0  0
 10 11  1  0  0  0  0
 10 33  1  0  0  0  0
 11 12  1  0  0  0  0
 11 19  2  0  0  0  0
 12 13  2  0  0  0  0
 12 18  1  0  0  0  0
 13 14  1  0  0  0  0
 13 34  1  0  0  0  0
 14 15  2  0  0  0  0
 14 35  1  0  0  0  0
 15 16  1  0  0  0  0
 15 36  1  0  0  0  0
 16 17  1  0  0  0  0
 16 18  2  0  0  0  0
 18 37  1  0  0  0  0
 19 38  1  0  0  0  0
 20 21  1  0  0  0  0
 20 22  1  0  0  0  0
 20 23  1  0  0  0  0
 21 39  1  0  0  0  0
 21 40  1  0  0  0  0
 21 41  1  0  0  0  0
 22 23  1  0  0  0  0
 22 42  1  0  0  0  0
 22 43  1  0  0  0  0
 23 44  1  0  0  0  0
 23 45  1  0  0  0  0
 24 25  2  0  0  0  0
M  CHG  1   5   1
M  END
$$$$
