p38a_3fmh
 OpenBabel02232411163D
Structure written by MMmdl.
 46 49  0  0  1  0  0  0  0  0999 V2000
   38.2470   37.0900   14.9220 F   0  0  0  0  0  0  0  0  0  0  0  0
   37.6470   36.5610   15.9860 C   0  0  0  0  0  0  0  0  0  0  0  0
   38.3170   36.5830   17.2120 C   0  0  0  0  0  0  0  0  0  0  0  0
   37.6530   36.1270   18.3560 C   0  0  0  0  0  0  0  0  0  0  0  0
   36.3560   36.0410   15.8210 C   0  0  0  0  0  0  0  0  0  0  0  0
   35.7300   35.5610   16.9680 C   0  0  0  0  0  0  0  0  0  0  0  0
   34.5210   35.0210   16.8990 F   0  0  0  0  0  0  0  0  0  0  0  0
   36.3590   35.6160   18.2290 C   0  0  0  0  0  0  0  0  0  0  0  0
   35.6640   35.0000   19.2790 O   0  0  0  0  0  0  0  0  0  0  0  0
   35.2120   35.8400   20.2920 C   0  0  0  0  0  0  0  0  0  0  0  0
   34.5150   34.9970   21.3050 C   0  0  0  0  0  0  0  0  0  0  0  0
   34.2860   33.8130   21.1890 O   0  0  0  0  0  0  0  0  0  0  0  0
   34.1030   35.7000   22.4890 N   0  0  0  0  0  0  0  0  0  0  0  0
   33.4370   34.9450   23.5870 C   0  0  0  0  0  0  0  0  0  0  0  0
   34.2710   37.0880   22.6240 C   0  0  0  0  0  0  0  0  0  0  0  0
   33.8640   37.6840   23.7940 N   0  0  0  0  0  0  0  0  0  0  0  0
   35.3340   37.1830   20.3810 C   0  0  0  0  0  0  0  0  0  0  0  0
   34.8430   37.8460   21.5600 C   0  0  0  0  0  0  0  0  0  0  0  0
   34.9050   39.2530   21.7370 C   0  0  0  0  0  0  0  0  0  0  0  0
   34.5110   39.8650   22.8660 N   0  0  0  0  0  0  0  0  0  0  0  0
   34.0190   39.0480   23.8980 C   0  0  0  0  0  0  0  0  0  0  0  0
   33.7460   39.6630   25.1170 N   0  0  0  0  0  0  0  0  0  0  0  0
   32.7770   39.0360   26.0660 C   0  0  2  0  0  0  0  0  0  0  0  0
   31.3380   39.1700   25.5480 C   0  0  0  0  0  0  0  0  0  0  0  0
   32.8860   39.7580   27.4400 C   0  0  0  0  0  0  0  0  0  0  0  0
   34.1610   39.4900   28.1390 N   0  0  0  0  0  0  0  0  0  0  0  0
   35.1670   40.4030   28.2470 N   0  0  0  0  0  0  0  0  0  0  0  0
   36.1090   39.7760   29.0060 C   0  0  0  0  0  0  0  0  0  0  0  0
   35.6430   38.4750   29.3390 N   0  0  0  0  0  0  0  0  0  0  0  0
   34.4730   38.3290   28.8050 N   0  0  0  0  0  0  0  0  0  0  0  0
   39.3340   36.9770   17.2880 H   0  0  0  0  0  0  0  0  0  0  0  0
   38.1440   36.1940   19.3300 H   0  0  0  0  0  0  0  0  0  0  0  0
   35.8610   36.0350   14.8470 H   0  0  0  0  0  0  0  0  0  0  0  0
   33.9760   35.1200   24.5580 H   0  0  0  0  0  0  0  0  0  0  0  0
   32.3760   35.2970   23.7040 H   0  0  0  0  0  0  0  0  0  0  0  0
   33.4380   33.8470   23.3610 H   0  0  0  0  0  0  0  0  0  0  0  0
   35.8000   37.7950   19.6040 H   0  0  0  0  0  0  0  0  0  0  0  0
   35.2750   39.8910   20.9200 H   0  0  0  0  0  0  0  0  0  0  0  0
   33.7070   40.7090   25.1220 H   0  0  0  0  0  0  0  0  0  0  0  0
   33.0300   37.9450   26.1940 H   0  0  0  0  0  0  0  0  0  0  0  0
   30.6170   38.7830   26.3060 H   0  0  0  0  0  0  0  0  0  0  0  0
   31.0920   40.2310   25.3220 H   0  0  0  0  0  0  0  0  0  0  0  0
   31.2050   38.5620   24.6230 H   0  0  0  0  0  0  0  0  0  0  0  0
   32.7710   40.8720   27.3080 H   0  0  0  0  0  0  0  0  0  0  0  0
   32.0440   39.3860   28.0970 H   0  0  0  0  0  0  0  0  0  0  0  0
   37.0620   40.1920   29.3270 H   0  0  0  0  0  0  0  0  0  0  0  0
  1  2  1  0  0  0  0
  2  3  2  0  0  0  0
  2  5  1  0  0  0  0
  3  4  1  0  0  0  0
  3 31  1  0  0  0  0
  4  8  2  0  0  0  0
  4 32  1  0  0  0  0
  5  6  2  0  0  0  0
  5 33  1  0  0  0  0
  6  7  1  0  0  0  0
  6  8  1  0  0  0  0
  8  9  1  0  0  0  0
  9 10  1  0  0  0  0
 10 11  1  0  0  0  0
 10 17  2  0  0  0  0
 11 12  2  0  0  0  0
 11 13  1  0  0  0  0
 13 14  1  0  0  0  0
 13 15  1  0  0  0  0
 14 34  1  0  0  0  0
 14 35  1  0  0  0  0
 14 36  1  0  0  0  0
 15 16  2  0  0  0  0
 15 18  1  0  0  0  0
 16 21  1  0  0  0  0
 17 18  1  0  0  0  0
 17 37  1  0  0  0  0
 18 19  2  0  0  0  0
 19 20  1  0  0  0  0
 19 38  1  0  0  0  0
 20 21  2  0  0  0  0
 21 22  1  0  0  0  0
 22 23  1  0  0  0  0
 22 39  1  0  0  0  0
 23 24  1  0  0  0  0
 23 25  1  0  0  0  0
 23 40  1  6  0  0  0
 24 41  1  0  0  0  0
 24 42  1  0  0  0  0
 24 43  1  0  0  0  0
 25 26  1  0  0  0  0
 25 44  1  0  0  0  0
 25 45  1  0  0  0  0
 26 27  1  0  0  0  0
 26 30  1  0  0  0  0
 27 28  2  0  0  0  0
 28 29  1  0  0  0  0
 28 46  1  0  0  0  0
 29 30  2  0  0  0  0
M  END
$$$$
