p38a_2v
 OpenBabel02232411163D
Structure written by MMmdl.
 35 37  0  0  0  0  0  0  0  0999 V2000
   36.3690   36.0360   15.8110 C   0  0  0  0  0  0  0  0  0  0  0  0
   34.4910   35.0140   21.3020 C   0  0  0  0  0  0  0  0  0  0  0  0
   35.7200   35.5570   16.9450 C   0  0  0  0  0  0  0  0  0  0  0  0
   33.9400   39.1140   23.8110 C   0  0  0  0  0  0  0  0  0  0  0  0
   33.0290   39.0590   26.1350 C   0  0  0  0  0  0  0  0  0  0  0  0
   34.7500   37.8750   21.4850 C   0  0  0  0  0  0  0  0  0  0  0  0
   35.2500   37.1960   20.3210 C   0  0  0  0  0  0  0  0  0  0  0  0
   37.6590   36.5470   16.0000 C   0  0  0  0  0  0  0  0  0  0  0  0
   38.3090   36.5600   17.2380 C   0  0  0  0  0  0  0  0  0  0  0  0
   37.6220   36.1060   18.3690 C   0  0  0  0  0  0  0  0  0  0  0  0
   34.2130   37.1300   22.5770 C   0  0  0  0  0  0  0  0  0  0  0  0
   34.7750   39.2890   21.6250 C   0  0  0  0  0  0  0  0  0  0  0  0
   35.1540   35.8480   20.2630 C   0  0  0  0  0  0  0  0  0  0  0  0
   36.3250   35.6060   18.2170 C   0  0  0  0  0  0  0  0  0  0  0  0
   33.5020   34.9790   23.6230 C   0  0  0  0  0  0  0  0  0  0  0  0
   34.5080   35.0250   16.8530 F   0  0  0  0  0  0  0  0  0  0  0  0
   35.6060   34.9980   19.2540 O   0  0  0  0  0  0  0  0  0  0  0  0
   34.3850   39.9190   22.7420 N   0  0  0  0  0  0  0  0  0  0  0  0
   34.2800   33.8240   21.2150 O   0  0  0  0  0  0  0  0  0  0  0  0
   34.0840   35.7340   22.4790 N   0  0  0  0  0  0  0  0  0  0  0  0
   33.8020   37.7400   23.7360 N   0  0  0  0  0  0  0  0  0  0  0  0
   33.6870   39.7490   25.0030 N   0  0  0  0  0  0  0  0  0  0  0  0
   35.8910   36.0370   14.8290 H   0  0  0  0  0  0  0  0  0  0  0  0
   33.6190   38.1540   26.4400 H   0  0  0  0  0  0  0  0  0  0  0  0
   35.7020   37.7980   19.5290 H   0  0  0  0  0  0  0  0  0  0  0  0
   39.3280   36.9460   17.3310 H   0  0  0  0  0  0  0  0  0  0  0  0
   38.0950   36.1670   19.3510 H   0  0  0  0  0  0  0  0  0  0  0  0
   35.1180   39.9150   20.7850 H   0  0  0  0  0  0  0  0  0  0  0  0
   34.0860   35.1900   24.5610 H   0  0  0  0  0  0  0  0  0  0  0  0
   32.4370   35.2950   23.7920 H   0  0  0  0  0  0  0  0  0  0  0  0
   33.5320   33.8770   23.4180 H   0  0  0  0  0  0  0  0  0  0  0  0
   33.6570   40.7840   25.0460 H   0  0  0  0  0  0  0  0  0  0  0  0
   38.2800   37.0800   14.9500 F   0  0  0  0  0  0  0  0  0  0  0  0
   32.9940   39.7730   27.0010 H   0  0  0  0  0  0  0  0  0  0  0  0
   31.9860   38.7390   25.8780 H   0  0  0  0  0  0  0  0  0  0  0  0
  1  3  2  0  0  0  0
  1  8  1  0  0  0  0
  1 23  1  0  0  0  0
  2 13  1  0  0  0  0
  2 19  2  0  0  0  0
  2 20  1  0  0  0  0
  3 14  1  0  0  0  0
  3 16  1  0  0  0  0
  4 18  2  0  0  0  0
  4 21  1  0  0  0  0
  4 22  1  0  0  0  0
  5 22  1  0  0  0  0
  5 24  1  0  0  0  0
  5 34  1  0  0  0  0
  5 35  1  0  0  0  0
  6  7  1  0  0  0  0
  6 11  1  0  0  0  0
  6 12  2  0  0  0  0
  7 13  2  0  0  0  0
  7 25  1  0  0  0  0
  8  9  2  0  0  0  0
  8 33  1  0  0  0  0
  9 10  1  0  0  0  0
  9 26  1  0  0  0  0
 10 14  2  0  0  0  0
 10 27  1  0  0  0  0
 11 20  1  0  0  0  0
 11 21  2  0  0  0  0
 12 18  1  0  0  0  0
 12 28  1  0  0  0  0
 13 17  1  0  0  0  0
 14 17  1  0  0  0  0
 15 20  1  0  0  0  0
 15 29  1  0  0  0  0
 15 30  1  0  0  0  0
 15 31  1  0  0  0  0
 22 32  1  0  0  0  0
M  END
$$$$
