p38a_2u
 OpenBabel02232411163D
Structure written by MMmdl.
 64 68  0  0  0  0  0  0  0  0999 V2000
   38.2680   36.5440   17.1620 C   0  0  0  0  0  0  0  0  0  0  0  0
   34.5810   35.1020   21.3010 C   0  0  0  0  0  0  0  0  0  0  0  0
   37.5010   36.0960   18.2350 C   0  0  0  0  0  0  0  0  0  0  0  0
   34.0560   39.1880   23.8330 C   0  0  0  0  0  0  0  0  0  0  0  0
   34.6960   37.9750   21.4430 C   0  0  0  0  0  0  0  0  0  0  0  0
   35.0790   37.3180   20.2230 C   0  0  0  0  0  0  0  0  0  0  0  0
   37.6000   36.6950   15.9390 C   0  0  0  0  0  0  0  0  0  0  0  0
   36.2470   36.3990   15.7580 C   0  0  0  0  0  0  0  0  0  0  0  0
   35.5020   35.9370   16.8490 C   0  0  0  0  0  0  0  0  0  0  0  0
   34.3530   37.2030   22.5920 C   0  0  0  0  0  0  0  0  0  0  0  0
   34.6510   39.3890   21.5770 C   0  0  0  0  0  0  0  0  0  0  0  0
   35.0640   35.9670   20.1860 C   0  0  0  0  0  0  0  0  0  0  0  0
   36.1360   35.7740   18.0830 C   0  0  0  0  0  0  0  0  0  0  0  0
   38.0540   35.9680   19.4340 F   0  0  0  0  0  0  0  0  0  0  0  0
   35.4360   35.1470   19.1240 O   0  0  0  0  0  0  0  0  0  0  0  0
   34.3470   40.0100   22.7270 N   0  0  0  0  0  0  0  0  0  0  0  0
   34.4320   33.9020   21.2150 O   0  0  0  0  0  0  0  0  0  0  0  0
   34.3010   35.7940   22.5310 N   0  0  0  0  0  0  0  0  0  0  0  0
   34.0640   37.8090   23.7870 N   0  0  0  0  0  0  0  0  0  0  0  0
   33.6740   39.8030   25.0060 N   0  0  0  0  0  0  0  0  0  0  0  0
   39.3240   36.8020   17.2780 H   0  0  0  0  0  0  0  0  0  0  0  0
   35.3780   37.9370   19.3740 H   0  0  0  0  0  0  0  0  0  0  0  0
   35.7600   36.5370   14.7900 H   0  0  0  0  0  0  0  0  0  0  0  0
   34.4350   35.7230   16.7300 H   0  0  0  0  0  0  0  0  0  0  0  0
   34.8680   40.0280   20.7050 H   0  0  0  0  0  0  0  0  0  0  0  0
   33.7790   40.8310   25.1020 H   0  0  0  0  0  0  0  0  0  0  0  0
   38.2850   37.1810   14.9060 F   0  0  0  0  0  0  0  0  0  0  0  0
   32.4310   39.0910   28.5450 C   0  0  0  0  0  0  0  0  0  0  0  0
   32.4780   39.7420   27.1580 C   0  0  0  0  0  0  0  0  0  0  0  0
   33.5580   39.0540   26.2950 C   0  0  0  0  0  0  0  0  0  0  0  0
   34.9160   39.0410   27.0330 C   0  0  0  0  0  0  0  0  0  0  0  0
   34.7470   38.4400   28.4330 C   0  0  0  0  0  0  0  0  0  0  0  0
   33.7250   39.1310   29.1900 O   0  0  0  0  0  0  0  0  0  0  0  0
   32.0910   38.0300   28.4770 H   0  0  0  0  0  0  0  0  0  0  0  0
   31.7950   39.6770   29.2470 H   0  0  0  0  0  0  0  0  0  0  0  0
   32.7080   40.8280   27.2630 H   0  0  0  0  0  0  0  0  0  0  0  0
   31.4830   39.6360   26.6620 H   0  0  0  0  0  0  0  0  0  0  0  0
   33.2340   37.9960   26.0810 H   0  0  0  0  0  0  0  0  0  0  0  0
   35.6490   38.4280   26.4570 H   0  0  0  0  0  0  0  0  0  0  0  0
   35.3090   40.0830   27.1140 H   0  0  0  0  0  0  0  0  0  0  0  0
   34.4770   37.3600   28.3730 H   0  0  0  0  0  0  0  0  0  0  0  0
   35.6550   38.6020   29.0570 H   0  0  0  0  0  0  0  0  0  0  0  0
   33.9060   32.8160   24.9650 C   0  0  0  0  0  0  0  0  0  0  0  0
   34.6920   33.8900   24.1690 C   0  0  0  0  0  0  0  0  0  0  0  0
   33.7590   35.0390   23.7300 C   0  0  0  0  0  0  0  0  0  0  0  0
   32.3380   34.5310   23.4220 C   0  0  0  0  0  0  0  0  0  0  0  0
   31.7010   34.0090   24.7280 C   0  0  0  0  0  0  0  0  0  0  0  0
   34.5850   32.3830   25.7440 H   0  0  0  0  0  0  0  0  0  0  0  0
   33.5690   32.0090   24.2620 H   0  0  0  0  0  0  0  0  0  0  0  0
   35.1650   33.3940   23.2920 H   0  0  0  0  0  0  0  0  0  0  0  0
   35.4940   34.3240   24.8150 H   0  0  0  0  0  0  0  0  0  0  0  0
   33.6870   35.7640   24.5960 H   0  0  0  0  0  0  0  0  0  0  0  0
   31.7030   35.3640   23.0380 H   0  0  0  0  0  0  0  0  0  0  0  0
   32.3650   33.7220   22.6570 H   0  0  0  0  0  0  0  0  0  0  0  0
   31.2360   34.8810   25.2690 H   0  0  0  0  0  0  0  0  0  0  0  0
   30.9030   33.2670   24.4640 H   0  0  0  0  0  0  0  0  0  0  0  0
   32.7250   33.4210   25.6400 N   0  0  0  0  0  0  0  0  0  0  0  0
   32.2230   32.9460   27.2040 S   0  0  0  0  0  0  0  0  0  0  0  0
   33.2990   32.1090   27.7690 O   0  0  0  0  0  0  0  0  0  0  0  0
   30.9430   32.2130   27.1290 O   0  0  0  0  0  0  0  0  0  0  0  0
   32.0470   34.4410   28.0530 C   0  0  0  0  0  0  0  0  0  0  0  0
   31.0760   34.9620   27.8310 H   0  0  0  0  0  0  0  0  0  0  0  0
   32.0890   34.3130   29.1650 H   0  0  0  0  0  0  0  0  0  0  0  0
   32.8540   35.1760   27.7830 H   0  0  0  0  0  0  0  0  0  0  0  0
  1  3  2  0  0  0  0
  1  7  1  0  0  0  0
  1 21  1  0  0  0  0
  2 12  1  0  0  0  0
  2 17  2  0  0  0  0
  2 18  1  0  0  0  0
  3 13  1  0  0  0  0
  3 14  1  0  0  0  0
  4 16  2  0  0  0  0
  4 19  1  0  0  0  0
  4 20  1  0  0  0  0
  5  6  1  0  0  0  0
  5 10  1  0  0  0  0
  5 11  2  0  0  0  0
  6 12  2  0  0  0  0
  6 22  1  0  0  0  0
  7  8  2  0  0  0  0
  7 27  1  0  0  0  0
  8  9  1  0  0  0  0
  8 23  1  0  0  0  0
  9 13  2  0  0  0  0
  9 24  1  0  0  0  0
 10 18  1  0  0  0  0
 10 19  2  0  0  0  0
 11 16  1  0  0  0  0
 11 25  1  0  0  0  0
 12 15  1  0  0  0  0
 13 15  1  0  0  0  0
 18 45  1  0  0  0  0
 20 26  1  0  0  0  0
 20 30  1  0  0  0  0
 28 29  1  0  0  0  0
 28 33  1  0  0  0  0
 28 34  1  0  0  0  0
 28 35  1  0  0  0  0
 29 30  1  0  0  0  0
 29 36  1  0  0  0  0
 29 37  1  0  0  0  0
 30 31  1  0  0  0  0
 30 38  1  0  0  0  0
 31 32  1  0  0  0  0
 31 39  1  0  0  0  0
 31 40  1  0  0  0  0
 32 33  1  0  0  0  0
 32 41  1  0  0  0  0
 32 42  1  0  0  0  0
 43 44  1  0  0  0  0
 43 48  1  0  0  0  0
 43 49  1  0  0  0  0
 43 57  1  0  0  0  0
 44 45  1  0  0  0  0
 44 50  1  0  0  0  0
 44 51  1  0  0  0  0
 45 46  1  0  0  0  0
 45 52  1  0  0  0  0
 46 47  1  0  0  0  0
 46 53  1  0  0  0  0
 46 54  1  0  0  0  0
 47 55  1  0  0  0  0
 47 56  1  0  0  0  0
 47 57  1  0  0  0  0
 57 58  1  0  0  0  0
 58 59  2  0  0  0  0
 58 60  2  0  0  0  0
 58 61  1  0  0  0  0
 61 62  1  0  0  0  0
 61 63  1  0  0  0  0
 61 64  1  0  0  0  0
M  END
$$$$
