p38a_2z
 OpenBabel02232411163D
Structure written by MMmdl.
 45 47  0  0  0  0  0  0  0  0999 V2000
   38.3120   36.5660   17.1460 C   0  0  0  0  0  0  0  0  0  0  0  0
   34.4550   35.0200   21.1300 C   0  0  0  0  0  0  0  0  0  0  0  0
   37.5290   36.1030   18.1990 C   0  0  0  0  0  0  0  0  0  0  0  0
   33.8200   39.0020   23.8090 C   0  0  0  0  0  0  0  0  0  0  0  0
   32.7490   38.9390   26.1390 C   0  0  0  0  0  0  0  0  0  0  0  0
   34.6200   37.8850   21.4100 C   0  0  0  0  0  0  0  0  0  0  0  0
   35.0860   37.2670   20.1980 C   0  0  0  0  0  0  0  0  0  0  0  0
   37.6670   36.7200   15.9110 C   0  0  0  0  0  0  0  0  0  0  0  0
   36.3210   36.4110   15.7000 C   0  0  0  0  0  0  0  0  0  0  0  0
   35.5590   35.9330   16.7710 C   0  0  0  0  0  0  0  0  0  0  0  0
   34.1070   37.0830   22.4720 C   0  0  0  0  0  0  0  0  0  0  0  0
   34.6520   39.2890   21.6290 C   0  0  0  0  0  0  0  0  0  0  0  0
   35.0290   35.9190   20.0930 C   0  0  0  0  0  0  0  0  0  0  0  0
   36.1700   35.7690   18.0180 C   0  0  0  0  0  0  0  0  0  0  0  0
   33.4300   34.8800   23.4290 C   0  0  0  0  0  0  0  0  0  0  0  0
   38.0580   35.9710   19.4090 F   0  0  0  0  0  0  0  0  0  0  0  0
   35.4560   35.1220   19.0340 O   0  0  0  0  0  0  0  0  0  0  0  0
   34.2750   39.8580   22.7830 N   0  0  0  0  0  0  0  0  0  0  0  0
   34.3510   33.8160   21.0340 O   0  0  0  0  0  0  0  0  0  0  0  0
   34.0060   35.6900   22.3190 N   0  0  0  0  0  0  0  0  0  0  0  0
   33.7050   37.6350   23.6630 N   0  0  0  0  0  0  0  0  0  0  0  0
   33.5500   39.5830   25.0310 N   0  0  0  0  0  0  0  0  0  0  0  0
   39.3630   36.8320   17.2830 H   0  0  0  0  0  0  0  0  0  0  0  0
   31.3260   38.6240   25.6470 C   0  0  0  0  0  0  0  0  0  0  0  0
   35.4780   37.9100   19.4070 H   0  0  0  0  0  0  0  0  0  0  0  0
   35.8530   36.5520   14.7240 H   0  0  0  0  0  0  0  0  0  0  0  0
   34.4980   35.7050   16.6270 H   0  0  0  0  0  0  0  0  0  0  0  0
   34.9930   39.9610   20.8240 H   0  0  0  0  0  0  0  0  0  0  0  0
   34.1020   34.9280   24.3280 H   0  0  0  0  0  0  0  0  0  0  0  0
   32.4200   35.2830   23.7120 H   0  0  0  0  0  0  0  0  0  0  0  0
   33.3160   33.8110   23.1110 H   0  0  0  0  0  0  0  0  0  0  0  0
   33.5900   40.6260   25.0850 H   0  0  0  0  0  0  0  0  0  0  0  0
   38.3630   37.2270   14.8970 F   0  0  0  0  0  0  0  0  0  0  0  0
   33.4860   37.6480   26.6190 C   0  0  0  0  0  0  0  0  0  0  0  0
   32.7080   39.9610   27.2880 C   0  0  0  0  0  0  0  0  0  0  0  0
   33.0070   37.2440   27.9120 O   0  0  0  0  0  0  0  0  0  0  0  0
   32.0810   36.9030   27.8270 H   0  0  0  0  0  0  0  0  0  0  0  0
   33.3450   36.8050   25.9080 H   0  0  0  0  0  0  0  0  0  0  0  0
   34.5650   37.8570   26.8070 H   0  0  0  0  0  0  0  0  0  0  0  0
   32.2380   39.4970   28.1850 H   0  0  0  0  0  0  0  0  0  0  0  0
   33.7340   40.2930   27.5690 H   0  0  0  0  0  0  0  0  0  0  0  0
   32.1180   40.8520   26.9920 H   0  0  0  0  0  0  0  0  0  0  0  0
   30.6850   38.3270   26.5070 H   0  0  0  0  0  0  0  0  0  0  0  0
   30.8660   39.5220   25.1750 H   0  0  0  0  0  0  0  0  0  0  0  0
   31.3280   37.7930   24.9060 H   0  0  0  0  0  0  0  0  0  0  0  0
  1  3  2  0  0  0  0
  1  8  1  0  0  0  0
  1 23  1  0  0  0  0
  2 13  1  0  0  0  0
  2 19  2  0  0  0  0
  2 20  1  0  0  0  0
  3 14  1  0  0  0  0
  3 16  1  0  0  0  0
  4 18  2  0  0  0  0
  4 21  1  0  0  0  0
  4 22  1  0  0  0  0
  5 22  1  0  0  0  0
  5 24  1  0  0  0  0
  5 34  1  0  0  0  0
  5 35  1  0  0  0  0
  6  7  1  0  0  0  0
  6 11  1  0  0  0  0
  6 12  2  0  0  0  0
  7 13  2  0  0  0  0
  7 25  1  0  0  0  0
  8  9  2  0  0  0  0
  8 33  1  0  0  0  0
  9 10  1  0  0  0  0
  9 26  1  0  0  0  0
 10 14  2  0  0  0  0
 10 27  1  0  0  0  0
 11 20  1  0  0  0  0
 11 21  2  0  0  0  0
 12 18  1  0  0  0  0
 12 28  1  0  0  0  0
 13 17  1  0  0  0  0
 14 17  1  0  0  0  0
 15 20  1  0  0  0  0
 15 29  1  0  0  0  0
 15 30  1  0  0  0  0
 15 31  1  0  0  0  0
 22 32  1  0  0  0  0
 24 43  1  0  0  0  0
 24 44  1  0  0  0  0
 24 45  1  0  0  0  0
 34 36  1  0  0  0  0
 34 38  1  0  0  0  0
 34 39  1  0  0  0  0
 35 40  1  0  0  0  0
 35 41  1  0  0  0  0
 35 42  1  0  0  0  0
 36 37  1  0  0  0  0
M  END
$$$$
