28
 OpenBabel02232411153D
Structure written by MMmdl.
 53 56  0  0  0  0  0  0  0  0999 V2000
    1.6580   28.9490    6.8100 C   0  0  0  0  0  0  0  0  0  0  0  0
   -1.7470   31.5930    8.0620 C   0  0  0  0  0  0  0  0  0  0  0  0
   -0.3440   26.0670    8.8770 C   0  0  0  0  0  0  0  0  0  0  0  0
   -1.0480   25.3700   10.0480 C   0  0  0  0  0  0  0  0  0  0  0  0
   -0.8220   23.8510    9.8680 C   0  0  0  0  0  0  0  0  0  0  0  0
   -1.3650   23.0540   11.0620 C   0  0  0  0  0  0  0  0  0  0  0  0
   -0.7880   23.5640   12.3910 C   0  0  0  0  0  0  0  0  0  0  0  0
   -1.0610   25.0650   12.5730 C   0  0  0  0  0  0  0  0  0  0  0  0
   -0.5000   25.8760   11.3960 C   0  0  0  0  0  0  0  0  0  0  0  0
    4.1650   25.4960    8.0370 C   0  0  0  0  0  0  0  0  0  0  0  0
    5.0610   25.0060    7.0740 C   0  0  0  0  0  0  0  0  0  0  0  0
    5.2360   25.7120    5.8800 C   0  0  0  0  0  0  0  0  0  0  0  0
    4.5060   26.8680    5.6270 C   0  0  0  0  0  0  0  0  0  0  0  0
    0.9300   27.9940    7.5120 N   0  0  0  0  0  0  0  0  0  0  0  0
   -0.2440   28.3380    8.1030 C   0  0  0  0  0  0  0  0  0  0  0  0
   -0.9240   27.4370    8.8240 O   0  0  0  0  0  0  0  0  0  0  0  0
   -0.7380   29.6620    7.9670 C   0  0  0  0  0  0  0  0  0  0  0  0
   -1.8640   30.3250    8.4660 N   0  0  0  0  0  0  0  0  0  0  0  0
   -0.5470   31.8130    7.2980 N   0  0  0  0  0  0  0  0  0  0  0  0
    0.0970   30.5830    7.2140 C   0  0  0  0  0  0  0  0  0  0  0  0
    1.2840   30.2600    6.5990 N   0  0  0  0  0  0  0  0  0  0  0  0
    2.8720   28.5310    6.2570 N   0  0  0  0  0  0  0  0  0  0  0  0
    3.5820   27.3420    6.5860 C   0  0  0  0  0  0  0  0  0  0  0  0
    3.4400   26.6630    7.8100 C   0  0  0  0  0  0  0  0  0  0  0  0
   -2.4330   32.4060    8.2800 H   0  0  0  0  0  0  0  0  0  0  0  0
    0.7530   26.1390    9.0510 H   0  0  0  0  0  0  0  0  0  0  0  0
   -0.5820   25.6090    7.8960 H   0  0  0  0  0  0  0  0  0  0  0  0
   -2.1440   25.5810   10.0180 H   0  0  0  0  0  0  0  0  0  0  0  0
   -1.3360   23.5100    8.9420 H   0  0  0  0  0  0  0  0  0  0  0  0
    0.2730   23.6490    9.7700 H   0  0  0  0  0  0  0  0  0  0  0  0
   -2.4710   23.1500   11.0920 H   0  0  0  0  0  0  0  0  0  0  0  0
   -1.1030   21.9770   10.9380 H   0  0  0  0  0  0  0  0  0  0  0  0
   -1.2500   23.0010   13.2340 H   0  0  0  0  0  0  0  0  0  0  0  0
    0.3130   23.3920   12.4010 H   0  0  0  0  0  0  0  0  0  0  0  0
   -2.1580   25.2370   12.6670 H   0  0  0  0  0  0  0  0  0  0  0  0
   -0.5730   25.4140   13.5120 H   0  0  0  0  0  0  0  0  0  0  0  0
    0.6140   25.7900   11.4100 H   0  0  0  0  0  0  0  0  0  0  0  0
   -0.7720   26.9480   11.5250 H   0  0  0  0  0  0  0  0  0  0  0  0
    4.0230   24.9730    8.9920 H   0  0  0  0  0  0  0  0  0  0  0  0
    5.9460   25.3830    5.1150 H   0  0  0  0  0  0  0  0  0  0  0  0
    4.6580   27.4040    4.6890 H   0  0  0  0  0  0  0  0  0  0  0  0
   -0.2660   32.6860    6.8280 H   0  0  0  0  0  0  0  0  0  0  0  0
    3.3880   29.1780    5.6140 H   0  0  0  0  0  0  0  0  0  0  0  0
    2.7670   27.0330    8.5850 H   0  0  0  0  0  0  0  0  0  0  0  0
    5.9730   23.6020    7.4790 S   0  0  0  0  0  0  0  0  0  0  0  0
    6.9000   24.0270    8.5250 O   0  0  0  0  0  0  0  0  0  0  0  0
    5.0790   22.4720    7.7430 O   0  0  0  0  0  0  0  0  0  0  0  0
    6.9550   23.1250    6.1640 N   0  0  0  0  0  0  0  0  0  0  0  0
    7.7210   23.7510    5.8640 H   0  0  0  0  0  0  0  0  0  0  0  0
    6.3370   22.4420    5.0020 C   0  0  0  0  0  0  0  0  0  0  0  0
    7.1530   22.0750    4.3200 H   0  0  0  0  0  0  0  0  0  0  0  0
    5.7500   21.5470    5.3370 H   0  0  0  0  0  0  0  0  0  0  0  0
    5.6710   23.1190    4.4020 H   0  0  0  0  0  0  0  0  0  0  0  0
  1 14  2  0  0  0  0
  1 21  1  0  0  0  0
  1 22  1  0  0  0  0
  2 18  2  0  0  0  0
  2 19  1  0  0  0  0
  2 25  1  0  0  0  0
  3  4  1  0  0  0  0
  3 16  1  0  0  0  0
  3 26  1  0  0  0  0
  3 27  1  0  0  0  0
  4  5  1  0  0  0  0
  4  9  1  0  0  0  0
  4 28  1  0  0  0  0
  5  6  1  0  0  0  0
  5 29  1  0  0  0  0
  5 30  1  0  0  0  0
  6  7  1  0  0  0  0
  6 31  1  0  0  0  0
  6 32  1  0  0  0  0
  7  8  1  0  0  0  0
  7 33  1  0  0  0  0
  7 34  1  0  0  0  0
  8  9  1  0  0  0  0
  8 35  1  0  0  0  0
  8 36  1  0  0  0  0
  9 37  1  0  0  0  0
  9 38  1  0  0  0  0
 10 11  2  0  0  0  0
 10 24  1  0  0  0  0
 10 39  1  0  0  0  0
 11 12  1  0  0  0  0
 11 45  1  0  0  0  0
 12 13  2  0  0  0  0
 12 40  1  0  0  0  0
 13 23  1  0  0  0  0
 13 41  1  0  0  0  0
 14 15  1  0  0  0  0
 15 16  1  0  0  0  0
 15 17  2  0  0  0  0
 17 18  1  0  0  0  0
 17 20  1  0  0  0  0
 19 20  1  0  0  0  0
 19 42  1  0  0  0  0
 20 21  2  0  0  0  0
 22 23  1  0  0  0  0
 22 43  1  0  0  0  0
 23 24  2  0  0  0  0
 24 44  1  0  0  0  0
 45 46  2  0  0  0  0
 45 47  2  0  0  0  0
 45 48  1  0  0  0  0
 48 49  1  0  0  0  0
 48 50  1  0  0  0  0
 50 51  1  0  0  0  0
 50 52  1  0  0  0  0
 50 53  1  0  0  0  0
M  END
$$$$
