p38a_2u
 OpenBabel02232411163D
Structure written by MMmdl.
 64 68  0  0  0  0  0  0  0  0999 V2000
   38.1960   36.4550   17.2790 C   0  0  0  0  0  0  0  0  0  0  0  0
   34.5290   35.1920   21.4850 C   0  0  0  0  0  0  0  0  0  0  0  0
   37.4260   36.0460   18.3640 C   0  0  0  0  0  0  0  0  0  0  0  0
   34.1410   39.3510   23.9220 C   0  0  0  0  0  0  0  0  0  0  0  0
   34.6990   38.0630   21.5490 C   0  0  0  0  0  0  0  0  0  0  0  0
   35.0490   37.3690   20.3400 C   0  0  0  0  0  0  0  0  0  0  0  0
   37.5290   36.5800   16.0530 C   0  0  0  0  0  0  0  0  0  0  0  0
   36.1730   36.2920   15.8820 C   0  0  0  0  0  0  0  0  0  0  0  0
   35.4220   35.8770   16.9880 C   0  0  0  0  0  0  0  0  0  0  0  0
   34.3800   37.3290   22.7280 C   0  0  0  0  0  0  0  0  0  0  0  0
   34.6660   39.4810   21.6430 C   0  0  0  0  0  0  0  0  0  0  0  0
   35.0080   36.0180   20.3390 C   0  0  0  0  0  0  0  0  0  0  0  0
   36.0540   35.7460   18.2280 C   0  0  0  0  0  0  0  0  0  0  0  0
   37.9850   35.9340   19.5620 F   0  0  0  0  0  0  0  0  0  0  0  0
   35.3400   35.1660   19.2870 O   0  0  0  0  0  0  0  0  0  0  0  0
   34.4000   40.1370   22.7820 N   0  0  0  0  0  0  0  0  0  0  0  0
   34.3270   33.9990   21.4250 O   0  0  0  0  0  0  0  0  0  0  0  0
   34.3150   35.9180   22.7100 N   0  0  0  0  0  0  0  0  0  0  0  0
   34.1200   37.9700   23.9110 N   0  0  0  0  0  0  0  0  0  0  0  0
   33.8270   40.0000   25.0930 N   0  0  0  0  0  0  0  0  0  0  0  0
   39.2570   36.7020   17.3840 H   0  0  0  0  0  0  0  0  0  0  0  0
   35.3450   37.9590   19.4700 H   0  0  0  0  0  0  0  0  0  0  0  0
   35.6880   36.3990   14.9080 H   0  0  0  0  0  0  0  0  0  0  0  0
   34.3520   35.6740   16.8770 H   0  0  0  0  0  0  0  0  0  0  0  0
   34.8570   40.0900   20.7440 H   0  0  0  0  0  0  0  0  0  0  0  0
   33.9400   41.0290   25.1600 H   0  0  0  0  0  0  0  0  0  0  0  0
   38.2190   37.0310   15.0070 F   0  0  0  0  0  0  0  0  0  0  0  0
   32.6560   39.4300   28.6860 C   0  0  0  0  0  0  0  0  0  0  0  0
   32.7290   40.0770   27.2980 C   0  0  0  0  0  0  0  0  0  0  0  0
   33.6900   39.2760   26.3950 C   0  0  0  0  0  0  0  0  0  0  0  0
   35.0650   39.1190   27.0800 C   0  0  0  0  0  0  0  0  0  0  0  0
   34.8830   38.5180   28.4790 C   0  0  0  0  0  0  0  0  0  0  0  0
   33.9660   39.2970   29.2820 O   0  0  0  0  0  0  0  0  0  0  0  0
   32.1780   38.4250   28.6330 H   0  0  0  0  0  0  0  0  0  0  0  0
   32.1340   40.0980   29.4110 H   0  0  0  0  0  0  0  0  0  0  0  0
   33.0900   41.1280   27.4020 H   0  0  0  0  0  0  0  0  0  0  0  0
   31.7140   40.1000   26.8360 H   0  0  0  0  0  0  0  0  0  0  0  0
   33.2500   38.2580   26.1970 H   0  0  0  0  0  0  0  0  0  0  0  0
   35.7130   38.4410   26.4740 H   0  0  0  0  0  0  0  0  0  0  0  0
   35.5660   40.1130   27.1560 H   0  0  0  0  0  0  0  0  0  0  0  0
   34.5060   37.4710   28.4150 H   0  0  0  0  0  0  0  0  0  0  0  0
   35.8260   38.5790   29.0700 H   0  0  0  0  0  0  0  0  0  0  0  0
   33.8690   32.8440   24.9410 C   0  0  0  0  0  0  0  0  0  0  0  0
   34.7120   33.9830   24.3190 C   0  0  0  0  0  0  0  0  0  0  0  0
   33.8460   35.2080   23.9670 C   0  0  0  0  0  0  0  0  0  0  0  0
   32.3570   34.8410   23.8290 C   0  0  0  0  0  0  0  0  0  0  0  0
   31.8390   34.3110   25.1810 C   0  0  0  0  0  0  0  0  0  0  0  0
   34.5680   32.2020   25.5370 H   0  0  0  0  0  0  0  0  0  0  0  0
   33.4180   32.2260   24.1200 H   0  0  0  0  0  0  0  0  0  0  0  0
   35.2340   33.5650   23.4290 H   0  0  0  0  0  0  0  0  0  0  0  0
   35.4860   34.3050   25.0600 H   0  0  0  0  0  0  0  0  0  0  0  0
   33.9490   35.9380   24.8270 H   0  0  0  0  0  0  0  0  0  0  0  0
   31.7600   35.7490   23.5620 H   0  0  0  0  0  0  0  0  0  0  0  0
   32.2110   34.0800   23.0290 H   0  0  0  0  0  0  0  0  0  0  0  0
   31.7120   35.1830   25.8840 H   0  0  0  0  0  0  0  0  0  0  0  0
   30.8480   33.8190   25.0020 H   0  0  0  0  0  0  0  0  0  0  0  0
   32.8110   33.3830   25.8430 N   0  0  0  0  0  0  0  0  0  0  0  0
   32.2180   32.4080   27.1300 S   0  0  0  0  0  0  0  0  0  0  0  0
   31.4510   31.2660   26.5920 O   0  0  0  0  0  0  0  0  0  0  0  0
   31.3740   33.2630   27.9890 O   0  0  0  0  0  0  0  0  0  0  0  0
   33.6330   31.8750   27.9750 C   0  0  0  0  0  0  0  0  0  0  0  0
   34.4200   32.6770   28.0320 H   0  0  0  0  0  0  0  0  0  0  0  0
   33.3990   31.6080   29.0430 H   0  0  0  0  0  0  0  0  0  0  0  0
   34.0990   30.9620   27.5270 H   0  0  0  0  0  0  0  0  0  0  0  0
  1  3  2  0  0  0  0
  1  7  1  0  0  0  0
  1 21  1  0  0  0  0
  2 12  1  0  0  0  0
  2 17  2  0  0  0  0
  2 18  1  0  0  0  0
  3 13  1  0  0  0  0
  3 14  1  0  0  0  0
  4 16  2  0  0  0  0
  4 19  1  0  0  0  0
  4 20  1  0  0  0  0
  5  6  1  0  0  0  0
  5 10  1  0  0  0  0
  5 11  2  0  0  0  0
  6 12  2  0  0  0  0
  6 22  1  0  0  0  0
  7  8  2  0  0  0  0
  7 27  1  0  0  0  0
  8  9  1  0  0  0  0
  8 23  1  0  0  0  0
  9 13  2  0  0  0  0
  9 24  1  0  0  0  0
 10 18  1  0  0  0  0
 10 19  2  0  0  0  0
 11 16  1  0  0  0  0
 11 25  1  0  0  0  0
 12 15  1  0  0  0  0
 13 15  1  0  0  0  0
 18 45  1  0  0  0  0
 20 26  1  0  0  0  0
 20 30  1  0  0  0  0
 28 29  1  0  0  0  0
 28 33  1  0  0  0  0
 28 34  1  0  0  0  0
 28 35  1  0  0  0  0
 29 30  1  0  0  0  0
 29 36  1  0  0  0  0
 29 37  1  0  0  0  0
 30 31  1  0  0  0  0
 30 38  1  0  0  0  0
 31 32  1  0  0  0  0
 31 39  1  0  0  0  0
 31 40  1  0  0  0  0
 32 33  1  0  0  0  0
 32 41  1  0  0  0  0
 32 42  1  0  0  0  0
 43 44  1  0  0  0  0
 43 48  1  0  0  0  0
 43 49  1  0  0  0  0
 43 57  1  0  0  0  0
 44 45  1  0  0  0  0
 44 50  1  0  0  0  0
 44 51  1  0  0  0  0
 45 46  1  0  0  0  0
 45 52  1  0  0  0  0
 46 47  1  0  0  0  0
 46 53  1  0  0  0  0
 46 54  1  0  0  0  0
 47 55  1  0  0  0  0
 47 56  1  0  0  0  0
 47 57  1  0  0  0  0
 57 58  1  0  0  0  0
 58 59  2  0  0  0  0
 58 60  2  0  0  0  0
 58 61  1  0  0  0  0
 61 62  1  0  0  0  0
 61 63  1  0  0  0  0
 61 64  1  0  0  0  0
M  END
$$$$
