18628-1
 OpenBabel02232411163D
Structure written by MMmdl.
 41 42  0  0  0  0  0  0  0  0999 V2000
   23.7710   12.6730   30.3690 C   0  0  0  0  0  0  0  0  0  0  0  0
   23.3520   11.2190   30.4730 C   0  0  0  0  0  0  0  0  0  0  0  0
   22.1090   11.2870   31.2850 O   0  0  0  0  0  0  0  0  0  0  0  0
   21.4940   10.1340   31.6210 C   0  0  0  0  0  0  0  0  0  0  0  0
   21.9910    8.9550   31.1790 N   0  0  0  0  0  0  0  0  0  0  0  0
   21.2820    7.8030   31.4930 C   0  0  0  0  0  0  0  0  0  0  0  0
   20.1270    7.8180   32.2680 C   0  0  0  0  0  0  0  0  0  0  0  0
   19.6200    9.0600   32.7370 C   0  0  0  0  0  0  0  0  0  0  0  0
   18.4720    9.0870   33.4880 N   0  0  0  0  0  0  0  0  0  0  0  0
   20.3060   10.2700   32.4010 C   0  0  0  0  0  0  0  0  0  0  0  0
   19.8660   11.5630   32.7550 C   0  0  0  0  0  0  0  0  0  0  0  0
   19.5540   12.6530   33.0010 N   0  0  0  0  0  0  0  0  0  0  0  0
   21.8720    6.6580   30.9080 N   0  0  0  0  0  0  0  0  0  0  0  0
   21.3360    5.3470   30.8440 C   0  0  0  0  0  0  0  0  0  0  0  0
   20.3080    5.0350   31.4070 O   0  0  0  0  0  0  0  0  0  0  0  0
   22.1460    4.4090   29.9600 C   0  0  0  0  0  0  0  0  0  0  0  0
   23.4180    3.9670   30.6350 C   0  0  0  0  0  0  0  0  0  0  0  0
   24.6660    4.5890   30.4280 C   0  0  0  0  0  0  0  0  0  0  0  0
   24.9110    5.7070   29.4640 C   0  0  0  0  0  0  0  0  0  0  0  0
   25.7800    4.1370   31.1640 C   0  0  0  0  0  0  0  0  0  0  0  0
   25.6750    3.0790   32.0630 C   0  0  0  0  0  0  0  0  0  0  0  0
   24.4450    2.4340   32.2320 C   0  0  0  0  0  0  0  0  0  0  0  0
   23.3320    2.8750   31.5190 C   0  0  0  0  0  0  0  0  0  0  0  0
   24.6830   12.7370   29.7230 H   0  0  0  0  0  0  0  0  0  0  0  0
   24.0120   13.1000   31.3680 H   0  0  0  0  0  0  0  0  0  0  0  0
   22.9690   13.2880   29.8980 H   0  0  0  0  0  0  0  0  0  0  0  0
   23.0850   10.7810   29.4860 H   0  0  0  0  0  0  0  0  0  0  0  0
   24.0930   10.5970   31.0230 H   0  0  0  0  0  0  0  0  0  0  0  0
   19.5950    6.8950   32.5080 H   0  0  0  0  0  0  0  0  0  0  0  0
   18.0610    9.9680   33.7960 H   0  0  0  0  0  0  0  0  0  0  0  0
   17.9860    8.2100   33.7580 H   0  0  0  0  0  0  0  0  0  0  0  0
   22.7770    6.8410   30.4320 H   0  0  0  0  0  0  0  0  0  0  0  0
   22.3570    4.9100   28.9830 H   0  0  0  0  0  0  0  0  0  0  0  0
   21.5140    3.5080   29.7370 H   0  0  0  0  0  0  0  0  0  0  0  0
   25.1070    6.6590   30.0240 H   0  0  0  0  0  0  0  0  0  0  0  0
   25.8340    5.4910   28.8630 H   0  0  0  0  0  0  0  0  0  0  0  0
   24.0870    5.8770   28.7430 H   0  0  0  0  0  0  0  0  0  0  0  0
   26.7500    4.6260   31.0230 H   0  0  0  0  0  0  0  0  0  0  0  0
   26.5530    2.7480   32.6260 H   0  0  0  0  0  0  0  0  0  0  0  0
   24.3620    1.5880   32.9190 H   0  0  0  0  0  0  0  0  0  0  0  0
   22.3820    2.3500   31.6510 H   0  0  0  0  0  0  0  0  0  0  0  0
  1  2  1  0  0  0  0
  1 24  1  0  0  0  0
  1 25  1  0  0  0  0
  1 26  1  0  0  0  0
  2  3  1  0  0  0  0
  2 27  1  0  0  0  0
  2 28  1  0  0  0  0
  3  4  1  0  0  0  0
  4 10  2  0  0  0  0
  4  5  1  0  0  0  0
  5  6  2  0  0  0  0
  6  7  1  0  0  0  0
  6 13  1  0  0  0  0
  7  8  2  0  0  0  0
  7 29  1  0  0  0  0
  8  9  1  0  0  0  0
  8 10  1  0  0  0  0
  9 30  1  0  0  0  0
  9 31  1  0  0  0  0
 10 11  1  0  0  0  0
 11 12  3  0  0  0  0
 13 14  1  0  0  0  0
 13 32  1  0  0  0  0
 14 15  2  0  0  0  0
 14 16  1  0  0  0  0
 16 17  1  0  0  0  0
 16 33  1  0  0  0  0
 16 34  1  0  0  0  0
 17 23  2  0  0  0  0
 17 18  1  0  0  0  0
 18 19  1  0  0  0  0
 18 20  2  0  0  0  0
 19 35  1  0  0  0  0
 19 36  1  0  0  0  0
 19 37  1  0  0  0  0
 20 21  1  0  0  0  0
 20 38  1  0  0  0  0
 21 22  2  0  0  0  0
 21 39  1  0  0  0  0
 22 23  1  0  0  0  0
 22 40  1  0  0  0  0
 23 41  1  0  0  0  0
M  END
$$$$
