46 flip
                    3D
 Schrodinger Suite 2022-3.
 45 48  0  0  1  0  0  0  0  0999 V2000
    3.5830  -48.6100    7.2160 O   0  0  0  0  0  0  0  0  0  0  0  0
    3.1590  -49.4660    6.4280 C   0  0  0  0  0  0  0  0  0  0  0  0
    3.8370  -50.2040    5.6890 O   0  5  0  0  0  0  0  0  0  0  0  0
    1.6370  -49.6890    6.3520 C   0  0  0  0  0  0  0  0  0  0  0  0
   -0.2880  -50.9170    6.5210 C   0  0  0  0  0  0  0  0  0  0  0  0
   -1.2600  -51.9050    6.7490 C   0  0  0  0  0  0  0  0  0  0  0  0
   -2.5770  -51.5860    6.4530 C   0  0  0  0  0  0  0  0  0  0  0  0
   -2.9260  -50.3140    5.9400 C   0  0  0  0  0  0  0  0  0  0  0  0
   -1.9700  -49.3330    5.7130 C   0  0  0  0  0  0  0  0  0  0  0  0
   -0.6240  -49.6130    6.0040 C   0  0  0  0  0  0  0  0  0  0  0  0
    0.6090  -48.8590    5.9200 C   0  0  0  0  0  0  0  0  0  0  0  0
    0.6910  -47.4450    5.4650 C   0  0  0  0  0  0  0  0  0  0  0  0
    0.6710  -46.4470    6.6370 C   0  0  0  0  0  0  0  0  0  0  0  0
   -0.6560  -46.4370    7.3900 C   0  0  0  0  0  0  0  0  0  0  0  0
   -1.5980  -45.8040    6.4480 O   0  0  0  0  0  0  0  0  0  0  0  0
   -2.8680  -45.5700    6.8910 C   0  0  0  0  0  0  0  0  0  0  0  0
   -4.9480  -44.4180    6.3940 C   0  0  0  0  0  0  0  0  0  0  0  0
   -3.6420  -44.7650    6.0290 C   0  0  0  0  0  0  0  0  0  0  0  0
   -0.9970  -52.8850    7.1460 H   0  0  0  0  0  0  0  0  0  0  0  0
   -3.3660  -52.3200    6.6190 H   0  0  0  0  0  0  0  0  0  0  0  0
   -3.9760  -50.1110    5.7240 H   0  0  0  0  0  0  0  0  0  0  0  0
   -2.2690  -48.3600    5.3200 H   0  0  0  0  0  0  0  0  0  0  0  0
   -0.1900  -47.2190    4.8080 H   0  0  0  0  0  0  0  0  0  0  0  0
    1.6220  -47.2700    4.8750 H   0  0  0  0  0  0  0  0  0  0  0  0
    0.8460  -45.4200    6.2400 H   0  0  0  0  0  0  0  0  0  0  0  0
    1.4750  -46.7140    7.3640 H   0  0  0  0  0  0  0  0  0  0  0  0
   -0.6190  -45.7910    8.2930 H   0  0  0  0  0  0  0  0  0  0  0  0
   -1.0400  -47.4590    7.5980 H   0  0  0  0  0  0  0  0  0  0  0  0
   -3.2300  -44.4140    5.0890 H   0  0  0  0  0  0  0  0  0  0  0  0
   -3.3870  -46.0750    8.1030 C   0  0  0  0  0  0  0  0  0  0  0  0
   -5.5520  -43.7910    5.7390 H   0  0  0  0  0  0  0  0  0  0  0  0
   -2.8240  -46.7260    8.7630 H   0  0  0  0  0  0  0  0  0  0  0  0
    1.1010  -50.9370    6.7280 N   0  0  0  0  0  0  0  0  0  0  0  0
   -6.6900  -45.1920    9.6580 C   0  0  0  0  0  0  0  0  0  0  0  0
   -5.4510  -46.1240    9.6630 C   0  0  0  0  0  0  0  0  0  0  0  0
   -4.6860  -45.7230    8.4320 C   0  0  0  0  0  0  0  0  0  0  0  0
   -5.4640  -44.8870    7.5970 C   0  0  0  0  0  0  0  0  0  0  0  0
   -6.8150  -44.6370    8.2100 C   0  0  0  0  0  0  0  0  0  0  0  0
   -7.0690  -43.5590    8.2050 H   0  0  0  0  0  0  0  0  0  0  0  0
   -7.6020  -45.1930    7.6490 H   0  0  0  0  0  0  0  0  0  0  0  0
   -6.5340  -44.3560   10.3720 H   0  0  0  0  0  0  0  0  0  0  0  0
   -7.5990  -45.7500    9.9500 H   0  0  0  0  0  0  0  0  0  0  0  0
   -5.7650  -47.1920    9.5860 H   0  0  0  0  0  0  0  0  0  0  0  0
   -4.8500  -45.9980   10.5820 H   0  0  0  0  0  0  0  0  0  0  0  0
    1.6020  -51.7470    7.0750 H   0  0  0  0  0  0  0  0  0  0  0  0
  1  2  2  0  0  0  0
  2  3  1  0  0  0  0
  2  4  1  0  0  0  0
  4 11  2  0  0  0  0
  4 33  1  0  0  0  0
  5  6  1  0  0  0  0
  5 10  2  0  0  0  0
  5 33  1  0  0  0  0
  6  7  2  0  0  0  0
  6 19  1  0  0  0  0
  7  8  1  0  0  0  0
  7 20  1  0  0  0  0
  8  9  2  0  0  0  0
  8 21  1  0  0  0  0
  9 10  1  0  0  0  0
  9 22  1  0  0  0  0
 10 11  1  0  0  0  0
 11 12  1  0  0  0  0
 12 23  1  0  0  0  0
 12 24  1  0  0  0  0
 12 13  1  0  0  0  0
 13 14  1  0  0  0  0
 13 25  1  0  0  0  0
 13 26  1  0  0  0  0
 14 15  1  0  0  0  0
 14 27  1  0  0  0  0
 14 28  1  0  0  0  0
 15 16  1  0  0  0  0
 16 18  2  0  0  0  0
 16 30  1  0  0  0  0
 17 18  1  0  0  0  0
 17 31  1  0  0  0  0
 17 37  2  0  0  0  0
 18 29  1  0  0  0  0
 30 32  1  0  0  0  0
 30 36  2  0  0  0  0
 33 45  1  0  0  0  0
 34 35  1  0  0  0  0
 34 38  1  0  0  0  0
 34 41  1  0  0  0  0
 34 42  1  0  0  0  0
 35 36  1  0  0  0  0
 35 43  1  0  0  0  0
 35 44  1  0  0  0  0
 36 37  1  0  0  0  0
 37 38  1  0  0  0  0
 38 39  1  0  0  0  0
 38 40  1  0  0  0  0
M  CHG  1   3  -1
M  END
$$$$
