CAT-13c
 OpenBabel02232411143D
Structure written by MMmdl.
 45 47  0  0  1  0  0  0  0  0999 V2000
   16.7220   -4.3050   -1.1120 C   0  0  0  0  0  0  0  0  0  0  0  0
   15.2000   -4.1520   -1.1920 C   0  0  0  0  0  0  0  0  0  0  0  0
   14.4880   -5.0910   -0.2090 C   0  0  0  0  0  0  0  0  0  0  0  0
   14.8190   -2.6570   -0.9410 C   0  0  2  0  0  0  0  0  0  0  0  0
   15.3140   -1.6540   -1.9700 C   0  0  0  0  0  0  0  0  0  0  0  0
   15.8580   -2.0580   -3.1970 C   0  0  0  0  0  0  0  0  0  0  0  0
   16.2760   -1.0960   -4.1220 C   0  0  0  0  0  0  0  0  0  0  0  0
   16.1380    0.2660   -3.8500 C   0  0  0  0  0  0  0  0  0  0  0  0
   15.5740    0.6840   -2.6330 C   0  0  0  0  0  0  0  0  0  0  0  0
   15.3720    2.1200   -2.3390 C   0  0  0  0  0  0  0  0  0  0  0  0
   15.6280    2.6240   -1.0540 C   0  0  0  0  0  0  0  0  0  0  0  0
   15.3290    3.9520   -0.7370 C   0  0  0  0  0  0  0  0  0  0  0  0
   14.8010    4.8060   -1.7090 C   0  0  0  0  0  0  0  0  0  0  0  0
   14.6180    4.3120   -3.0040 C   0  0  0  0  0  0  0  0  0  0  0  0
   14.0420    5.3730   -4.2270 Cl  0  0  0  0  0  0  0  0  0  0  0  0
   14.8810    2.9810   -3.3350 C   0  0  0  0  0  0  0  0  0  0  0  0
   15.1720   -0.2840   -1.6990 C   0  0  0  0  0  0  0  0  0  0  0  0
   15.2630   -2.2520    0.4500 N   0  3  0  0  0  0  0  0  0  0  0  0
   14.1660   -2.3050    1.3250 C   0  0  0  0  0  0  0  0  0  0  0  0
   14.3040   -2.3740    2.6790 N   0  0  0  0  0  0  0  0  0  0  0  0
   12.9800   -2.3350    0.5990 N   0  0  0  0  0  0  0  0  0  0  0  0
   11.6340   -2.3420    1.2090 C   0  0  0  0  0  0  0  0  0  0  0  0
   13.2690   -2.5260   -0.8420 C   0  0  0  0  0  0  0  0  0  0  0  0
   12.4050   -2.5350   -1.6590 O   0  0  0  0  0  0  0  0  0  0  0  0
   17.2400   -3.3160   -1.1410 H   0  0  0  0  0  0  0  0  0  0  0  0
   17.0200   -4.7990   -0.1600 H   0  0  0  0  0  0  0  0  0  0  0  0
   17.0980   -4.9110   -1.9590 H   0  0  0  0  0  0  0  0  0  0  0  0
   14.8420   -4.4170   -2.2220 H   0  0  0  0  0  0  0  0  0  0  0  0
   14.8680   -6.1300   -0.3620 H   0  0  0  0  0  0  0  0  0  0  0  0
   14.6890   -4.8140    0.8490 H   0  0  0  0  0  0  0  0  0  0  0  0
   13.3890   -5.1090   -0.3840 H   0  0  0  0  0  0  0  0  0  0  0  0
   15.9680   -3.1130   -3.4490 H   0  0  0  0  0  0  0  0  0  0  0  0
   16.7250   -1.4130   -5.0690 H   0  0  0  0  0  0  0  0  0  0  0  0
   16.4770    0.9970   -4.5920 H   0  0  0  0  0  0  0  0  0  0  0  0
   16.0480    1.9690   -0.2880 H   0  0  0  0  0  0  0  0  0  0  0  0
   15.4980    4.3100    0.2830 H   0  0  0  0  0  0  0  0  0  0  0  0
   14.5200    5.8290   -1.4510 H   0  0  0  0  0  0  0  0  0  0  0  0
   14.6950    2.6110   -4.3490 H   0  0  0  0  0  0  0  0  0  0  0  0
   14.7490    0.0270   -0.7430 H   0  0  0  0  0  0  0  0  0  0  0  0
   16.1860   -2.6180    0.8180 H   0  0  0  0  0  0  0  0  0  0  0  0
   13.5750   -2.0080    3.3370 H   0  0  0  0  0  0  0  0  0  0  0  0
   10.9900   -3.0930    0.6760 H   0  0  0  0  0  0  0  0  0  0  0  0
   11.6870   -2.6300    2.2920 H   0  0  0  0  0  0  0  0  0  0  0  0
   11.1800   -1.3190    1.1170 H   0  0  0  0  0  0  0  0  0  0  0  0
   15.2780   -2.3250    3.0920 H   0  0  0  0  0  0  0  0  0  0  0  0
  1  2  1  0  0  0  0
  1 25  1  0  0  0  0
  1 26  1  0  0  0  0
  1 27  1  0  0  0  0
  2  3  1  0  0  0  0
  2 28  1  0  0  0  0
  3 29  1  0  0  0  0
  3 30  1  0  0  0  0
  3 31  1  0  0  0  0
  4  2  1  6  0  0  0
  4  5  1  0  0  0  0
  4 18  1  0  0  0  0
  4 23  1  0  0  0  0
  5  6  2  0  0  0  0
  5 17  1  0  0  0  0
  6  7  1  0  0  0  0
  6 32  1  0  0  0  0
  7  8  2  0  0  0  0
  7 33  1  0  0  0  0
  8  9  1  0  0  0  0
  8 34  1  0  0  0  0
  9 10  1  0  0  0  0
  9 17  2  0  0  0  0
 10 11  2  0  0  0  0
 10 16  1  0  0  0  0
 11 12  1  0  0  0  0
 11 35  1  0  0  0  0
 12 13  2  0  0  0  0
 12 36  1  0  0  0  0
 13 14  1  0  0  0  0
 13 37  1  0  0  0  0
 14 15  1  0  0  0  0
 14 16  2  0  0  0  0
 16 38  1  0  0  0  0
 17 39  1  0  0  0  0
 18 19  2  0  0  0  0
 18 40  1  0  0  0  0
 19 20  1  0  0  0  0
 19 21  1  0  0  0  0
 20 41  1  0  0  0  0
 20 45  1  0  0  0  0
 21 22  1  0  0  0  0
 21 23  1  0  0  0  0
 22 42  1  0  0  0  0
 22 43  1  0  0  0  0
 22 44  1  0  0  0  0
 23 24  2  0  0  0  0
M  CHG  1  18   1
M  END
$$$$
