27
 OpenBabel02232411163D
Structure written by MMmdl.
 38 40  0  0  0  0  0  0  0  0999 V2000
    3.2310  -47.8270    7.1570 O   0  0  0  0  0  0  0  0  0  0  0  0
    2.9100  -48.9860    6.8600 C   0  0  0  0  0  0  0  0  0  0  0  0
    3.6850  -49.9590    6.7460 O   0  5  0  0  0  0  0  0  0  0  0  0
    1.4290  -49.3020    6.5960 C   0  0  0  0  0  0  0  0  0  0  0  0
   -0.4030  -50.6640    6.5050 C   0  0  0  0  0  0  0  0  0  0  0  0
   -1.3170  -51.7290    6.6090 C   0  0  0  0  0  0  0  0  0  0  0  0
   -2.6220  -51.4920    6.2090 C   0  0  0  0  0  0  0  0  0  0  0  0
   -3.0090  -50.2340    5.6870 C   0  0  0  0  0  0  0  0  0  0  0  0
   -2.1080  -49.1830    5.5740 C   0  0  0  0  0  0  0  0  0  0  0  0
   -0.7850  -49.3600    6.0150 C   0  0  0  0  0  0  0  0  0  0  0  0
    0.3840  -48.5150    6.1150 C   0  0  0  0  0  0  0  0  0  0  0  0
    0.4760  -47.0750    5.7560 C   0  0  0  0  0  0  0  0  0  0  0  0
   -0.6640  -46.1870    6.2940 C   0  0  0  0  0  0  0  0  0  0  0  0
   -0.8480  -46.2390    7.8060 C   0  0  0  0  0  0  0  0  0  0  0  0
   -1.9420  -47.1320    8.1960 O   0  0  0  0  0  0  0  0  0  0  0  0
   -3.1930  -46.6080    8.3780 C   0  0  0  0  0  0  0  0  0  0  0  0
   -3.7130  -45.5040    7.6840 C   0  0  0  0  0  0  0  0  0  0  0  0
   -5.0200  -45.0900    7.9640 C   0  0  0  0  0  0  0  0  0  0  0  0
   -5.7940  -45.7510    8.9190 C   0  0  0  0  0  0  0  0  0  0  0  0
   -5.2680  -46.8670    9.5870 C   0  0  0  0  0  0  0  0  0  0  0  0
   -3.9730  -47.3020    9.3320 C   0  0  0  0  0  0  0  0  0  0  0  0
   -1.0180  -52.7030    6.9950 H   0  0  0  0  0  0  0  0  0  0  0  0
   -3.3720  -52.2790    6.2890 H   0  0  0  0  0  0  0  0  0  0  0  0
   -4.0420  -50.0980    5.3660 H   0  0  0  0  0  0  0  0  0  0  0  0
   -2.4390  -48.2410    5.1410 H   0  0  0  0  0  0  0  0  0  0  0  0
    0.4660  -46.9850    4.6430 H   0  0  0  0  0  0  0  0  0  0  0  0
    1.4510  -46.6630    6.1350 H   0  0  0  0  0  0  0  0  0  0  0  0
   -0.4360  -45.1310    6.0230 H   0  0  0  0  0  0  0  0  0  0  0  0
   -1.6250  -46.4740    5.8040 H   0  0  0  0  0  0  0  0  0  0  0  0
   -1.0290  -45.2390    8.2520 H   0  0  0  0  0  0  0  0  0  0  0  0
    0.0030  -46.7660    8.2970 H   0  0  0  0  0  0  0  0  0  0  0  0
   -3.1410  -44.9780    6.9270 H   0  0  0  0  0  0  0  0  0  0  0  0
   -3.5690  -48.1640    9.8590 H   0  0  0  0  0  0  0  0  0  0  0  0
    0.9560  -50.6060    6.8370 N   0  0  0  0  0  0  0  0  0  0  0  0
    1.4850  -51.3990    7.1830 H   0  0  0  0  0  0  0  0  0  0  0  0
   -5.8860  -47.3950   10.3160 H   0  0  0  0  0  0  0  0  0  0  0  0
   -6.8050  -45.4140    9.1360 H   0  0  0  0  0  0  0  0  0  0  0  0
   -5.4460  -44.2430    7.4230 H   0  0  0  0  0  0  0  0  0  0  0  0
  1  2  2  0  0  0  0
  2  3  1  0  0  0  0
  2  4  1  0  0  0  0
  4 11  2  0  0  0  0
  4 34  1  0  0  0  0
  5  6  2  0  0  0  0
  5 10  1  0  0  0  0
  5 34  1  0  0  0  0
  6  7  1  0  0  0  0
  6 22  1  0  0  0  0
  7  8  2  0  0  0  0
  7 23  1  0  0  0  0
  8  9  1  0  0  0  0
  8 24  1  0  0  0  0
  9 10  2  0  0  0  0
  9 25  1  0  0  0  0
 10 11  1  0  0  0  0
 11 12  1  0  0  0  0
 12 26  1  0  0  0  0
 12 27  1  0  0  0  0
 12 13  1  0  0  0  0
 13 14  1  0  0  0  0
 13 28  1  0  0  0  0
 13 29  1  0  0  0  0
 14 15  1  0  0  0  0
 14 30  1  0  0  0  0
 14 31  1  0  0  0  0
 15 16  1  0  0  0  0
 16 17  2  0  0  0  0
 16 21  1  0  0  0  0
 17 18  1  0  0  0  0
 17 32  1  0  0  0  0
 18 19  2  0  0  0  0
 18 38  1  0  0  0  0
 19 20  1  0  0  0  0
 19 37  1  0  0  0  0
 20 21  2  0  0  0  0
 20 36  1  0  0  0  0
 21 33  1  0  0  0  0
 34 35  1  0  0  0  0
M  CHG  1   3  -1
M  END
$$$$
