44
 OpenBabel02232411163D
Structure written by MMmdl.
 44 47  0  0  0  0  0  0  0  0999 V2000
    3.3960  -48.1920    7.0870 O   0  0  0  0  0  0  0  0  0  0  0  0
    3.0290  -49.1960    6.4630 C   0  0  0  0  0  0  0  0  0  0  0  0
    3.7590  -50.0490    5.9210 O   0  5  0  0  0  0  0  0  0  0  0  0
    1.5170  -49.4740    6.3460 C   0  0  0  0  0  0  0  0  0  0  0  0
   -0.3640  -50.7720    6.5090 C   0  0  0  0  0  0  0  0  0  0  0  0
   -1.3070  -51.7870    6.7480 C   0  0  0  0  0  0  0  0  0  0  0  0
   -2.6290  -51.5200    6.4270 C   0  0  0  0  0  0  0  0  0  0  0  0
   -3.0160  -50.2740    5.8780 C   0  0  0  0  0  0  0  0  0  0  0  0
   -2.0900  -49.2670    5.6410 C   0  0  0  0  0  0  0  0  0  0  0  0
   -0.7400  -49.4950    5.9560 C   0  0  0  0  0  0  0  0  0  0  0  0
    0.4660  -48.6970    5.8740 C   0  0  0  0  0  0  0  0  0  0  0  0
    0.4810  -47.2940    5.3820 C   0  0  0  0  0  0  0  0  0  0  0  0
    0.4520  -46.2600    6.5220 C   0  0  0  0  0  0  0  0  0  0  0  0
   -0.6950  -46.4560    7.5030 C   0  0  0  0  0  0  0  0  0  0  0  0
   -1.9100  -45.9580    6.8120 O   0  0  0  0  0  0  0  0  0  0  0  0
   -3.0630  -45.9800    7.5330 C   0  0  0  0  0  0  0  0  0  0  0  0
   -5.4250  -45.6420    8.9680 C   0  0  0  0  0  0  0  0  0  0  0  0
   -4.4700  -46.5150    9.4280 C   0  0  0  0  0  0  0  0  0  0  0  0
   -3.2690  -46.6920    8.7030 C   0  0  0  0  0  0  0  0  0  0  0  0
   -1.0160  -52.7480    7.1740 H   0  0  0  0  0  0  0  0  0  0  0  0
   -3.3940  -52.2780    6.6010 H   0  0  0  0  0  0  0  0  0  0  0  0
   -4.0680  -50.1120    5.6410 H   0  0  0  0  0  0  0  0  0  0  0  0
   -2.4130  -48.3130    5.2240 H   0  0  0  0  0  0  0  0  0  0  0  0
   -0.4250  -47.1310    4.7420 H   0  0  0  0  0  0  0  0  0  0  0  0
    1.3920  -47.1020    4.7650 H   0  0  0  0  0  0  0  0  0  0  0  0
    0.3770  -45.2370    6.0890 H   0  0  0  0  0  0  0  0  0  0  0  0
    1.4020  -46.3470    7.1080 H   0  0  0  0  0  0  0  0  0  0  0  0
   -0.5830  -45.8150    8.4030 H   0  0  0  0  0  0  0  0  0  0  0  0
   -0.8750  -47.5270    7.7320 H   0  0  0  0  0  0  0  0  0  0  0  0
   -2.5500  -47.4050    9.0920 H   0  0  0  0  0  0  0  0  0  0  0  0
   -5.3170  -44.9870    7.7020 C   0  0  0  0  0  0  0  0  0  0  0  0
   -4.1140  -45.1630    6.9650 C   0  0  0  0  0  0  0  0  0  0  0  0
   -3.9830  -44.5570    5.6830 C   0  0  0  0  0  0  0  0  0  0  0  0
   -5.0040  -43.8000    5.1590 C   0  0  0  0  0  0  0  0  0  0  0  0
   -6.2070  -43.6260    5.8940 C   0  0  0  0  0  0  0  0  0  0  0  0
   -6.3630  -44.2010    7.1340 C   0  0  0  0  0  0  0  0  0  0  0  0
   -3.0710  -44.7310    5.1110 H   0  0  0  0  0  0  0  0  0  0  0  0
   -4.9070  -43.3330    4.1800 H   0  0  0  0  0  0  0  0  0  0  0  0
   -7.0070  -43.0310    5.4570 H   0  0  0  0  0  0  0  0  0  0  0  0
   -7.2990  -44.0660    7.6800 H   0  0  0  0  0  0  0  0  0  0  0  0
   -4.6140  -47.0720   10.3580 H   0  0  0  0  0  0  0  0  0  0  0  0
   -6.7910  -45.3080    9.9720 Cl  0  0  0  0  0  0  0  0  0  0  0  0
    1.0200  -50.7330    6.7410 N   0  0  0  0  0  0  0  0  0  0  0  0
    1.5470  -51.5170    7.1080 H   0  0  0  0  0  0  0  0  0  0  0  0
  1  2  2  0  0  0  0
  2  3  1  0  0  0  0
  2  4  1  0  0  0  0
  4 11  2  0  0  0  0
  4 43  1  0  0  0  0
  5  6  2  0  0  0  0
  5 10  1  0  0  0  0
  5 43  1  0  0  0  0
  6  7  1  0  0  0  0
  6 20  1  0  0  0  0
  7  8  2  0  0  0  0
  7 21  1  0  0  0  0
  8  9  1  0  0  0  0
  8 22  1  0  0  0  0
  9 10  2  0  0  0  0
  9 23  1  0  0  0  0
 10 11  1  0  0  0  0
 11 12  1  0  0  0  0
 12 24  1  0  0  0  0
 12 25  1  0  0  0  0
 12 13  1  0  0  0  0
 13 14  1  0  0  0  0
 13 26  1  0  0  0  0
 13 27  1  0  0  0  0
 14 15  1  0  0  0  0
 14 28  1  0  0  0  0
 14 29  1  0  0  0  0
 15 16  1  0  0  0  0
 16 19  2  0  0  0  0
 16 32  1  0  0  0  0
 17 18  2  0  0  0  0
 17 31  1  0  0  0  0
 17 42  1  0  0  0  0
 18 19  1  0  0  0  0
 18 41  1  0  0  0  0
 19 30  1  0  0  0  0
 31 32  2  0  0  0  0
 31 36  1  0  0  0  0
 32 33  1  0  0  0  0
 33 34  2  0  0  0  0
 33 37  1  0  0  0  0
 34 35  1  0  0  0  0
 34 38  1  0  0  0  0
 35 36  2  0  0  0  0
 35 39  1  0  0  0  0
 36 40  1  0  0  0  0
 43 44  1  0  0  0  0
M  CHG  1   3  -1
M  END
$$$$
