18652-1
 OpenBabel02232411163D
Structure written by MMmdl.
 55 56  0  0  0  0  0  0  0  0999 V2000
   23.2600   10.5000   28.9810 C   0  0  0  0  0  0  0  0  0  0  0  0
   23.5820   11.0050   30.3760 C   0  0  0  0  0  0  0  0  0  0  0  0
   24.0600   12.4520   30.3990 C   0  0  0  0  0  0  0  0  0  0  0  0
   22.3230   11.1040   31.1860 O   0  0  0  0  0  0  0  0  0  0  0  0
   21.6970    9.9870   31.6010 C   0  0  0  0  0  0  0  0  0  0  0  0
   22.1860    8.7710   31.2510 N   0  0  0  0  0  0  0  0  0  0  0  0
   21.4440    7.6580   31.6030 C   0  0  0  0  0  0  0  0  0  0  0  0
   20.2730    7.7400   32.3490 C   0  0  0  0  0  0  0  0  0  0  0  0
   19.7820    9.0130   32.7450 C   0  0  0  0  0  0  0  0  0  0  0  0
   18.6100    9.0920   33.4570 N   0  0  0  0  0  0  0  0  0  0  0  0
   20.5100   10.1870   32.3710 C   0  0  0  0  0  0  0  0  0  0  0  0
   20.1050   11.5020   32.6850 C   0  0  0  0  0  0  0  0  0  0  0  0
   19.8160   12.6030   32.9100 N   0  0  0  0  0  0  0  0  0  0  0  0
   21.9910    6.4550   31.0840 N   0  0  0  0  0  0  0  0  0  0  0  0
   21.2700    5.2500   30.9420 C   0  0  0  0  0  0  0  0  0  0  0  0
   20.1740    5.0820   31.4360 O   0  0  0  0  0  0  0  0  0  0  0  0
   21.9330    4.2170   30.0470 C   0  0  0  0  0  0  0  0  0  0  0  0
   23.2890    3.7440   30.4770 C   0  0  0  0  0  0  0  0  0  0  0  0
   24.4580    4.4040   29.9890 C   0  0  0  0  0  0  0  0  0  0  0  0
   24.1610    5.5410   29.2420 O   0  0  0  0  0  0  0  0  0  0  0  0
   25.2320    6.5060   29.0640 C   0  0  0  0  0  0  0  0  0  0  0  0
   25.7260    3.8820   30.2050 C   0  0  0  0  0  0  0  0  0  0  0  0
   25.8930    2.7140   30.9770 C   0  0  0  0  0  0  0  0  0  0  0  0
   27.5140    2.0660   31.1100 S   0  0  0  0  0  0  0  0  0  0  0  0
   27.4650    0.8630   31.9780 O   0  0  0  0  0  0  0  0  0  0  0  0
   28.4280    3.0870   31.6790 O   0  0  0  0  0  0  0  0  0  0  0  0
   27.9640    1.6440   29.4880 C   0  0  0  0  0  0  0  0  0  0  0  0
   24.7570    2.1260   31.5500 C   0  0  0  0  0  0  0  0  0  0  0  0
   23.4540    2.6220   31.2680 C   0  0  0  0  0  0  0  0  0  0  0  0
   25.0030    1.0740   32.3900 O   0  0  0  0  0  0  0  0  0  0  0  0
   23.8600    0.3390   32.9190 C   0  0  0  0  0  0  0  0  0  0  0  0
   22.9470    9.4300   29.0000 H   0  0  0  0  0  0  0  0  0  0  0  0
   22.4550   11.1020   28.5060 H   0  0  0  0  0  0  0  0  0  0  0  0
   24.1720   10.5800   28.3410 H   0  0  0  0  0  0  0  0  0  0  0  0
   24.2730   10.3220   30.9220 H   0  0  0  0  0  0  0  0  0  0  0  0
   24.1940   12.8160   31.4390 H   0  0  0  0  0  0  0  0  0  0  0  0
   25.0390   12.5140   29.8630 H   0  0  0  0  0  0  0  0  0  0  0  0
   23.3390   13.1220   29.8740 H   0  0  0  0  0  0  0  0  0  0  0  0
   19.7080    6.8440   32.6160 H   0  0  0  0  0  0  0  0  0  0  0  0
   18.0910    8.2340   33.7250 H   0  0  0  0  0  0  0  0  0  0  0  0
   18.2050    9.9900   33.7200 H   0  0  0  0  0  0  0  0  0  0  0  0
   22.9100    6.5400   30.5940 H   0  0  0  0  0  0  0  0  0  0  0  0
   21.2520    3.3290   29.9700 H   0  0  0  0  0  0  0  0  0  0  0  0
   22.0250    4.6830   29.0230 H   0  0  0  0  0  0  0  0  0  0  0  0
   25.9490    6.1200   28.3080 H   0  0  0  0  0  0  0  0  0  0  0  0
   24.6750    7.3940   28.6870 H   0  0  0  0  0  0  0  0  0  0  0  0
   25.7280    6.7250   30.0350 H   0  0  0  0  0  0  0  0  0  0  0  0
   26.5950    4.3760   29.7570 H   0  0  0  0  0  0  0  0  0  0  0  0
   28.0110    2.5370   28.8090 H   0  0  0  0  0  0  0  0  0  0  0  0
   28.9710    1.1550   29.4320 H   0  0  0  0  0  0  0  0  0  0  0  0
   27.2330    0.9350   29.0170 H   0  0  0  0  0  0  0  0  0  0  0  0
   22.5750    2.1030   31.6540 H   0  0  0  0  0  0  0  0  0  0  0  0
   23.2420    0.9940   33.5680 H   0  0  0  0  0  0  0  0  0  0  0  0
   23.2750   -0.1060   32.0860 H   0  0  0  0  0  0  0  0  0  0  0  0
   24.3630   -0.4570   33.5180 H   0  0  0  0  0  0  0  0  0  0  0  0
  1  2  1  0  0  0  0
  1 32  1  0  0  0  0
  1 33  1  0  0  0  0
  1 34  1  0  0  0  0
  2  3  1  0  0  0  0
  2  4  1  0  0  0  0
  2 35  1  0  0  0  0
  3 36  1  0  0  0  0
  3 37  1  0  0  0  0
  3 38  1  0  0  0  0
  4  5  1  0  0  0  0
  5 11  2  0  0  0  0
  5  6  1  0  0  0  0
  6  7  2  0  0  0  0
  7  8  1  0  0  0  0
  7 14  1  0  0  0  0
  8  9  2  0  0  0  0
  8 39  1  0  0  0  0
  9 10  1  0  0  0  0
  9 11  1  0  0  0  0
 10 40  1  0  0  0  0
 10 41  1  0  0  0  0
 11 12  1  0  0  0  0
 12 13  3  0  0  0  0
 14 15  1  0  0  0  0
 14 42  1  0  0  0  0
 15 16  2  0  0  0  0
 15 17  1  0  0  0  0
 17 18  1  0  0  0  0
 17 43  1  0  0  0  0
 17 44  1  0  0  0  0
 18 29  2  0  0  0  0
 18 19  1  0  0  0  0
 19 20  1  0  0  0  0
 19 22  2  0  0  0  0
 20 21  1  0  0  0  0
 21 45  1  0  0  0  0
 21 46  1  0  0  0  0
 21 47  1  0  0  0  0
 22 23  1  0  0  0  0
 22 48  1  0  0  0  0
 23 24  1  0  0  0  0
 23 28  2  0  0  0  0
 24 25  2  0  0  0  0
 24 26  2  0  0  0  0
 24 27  1  0  0  0  0
 27 49  1  0  0  0  0
 27 50  1  0  0  0  0
 27 51  1  0  0  0  0
 28 29  1  0  0  0  0
 28 30  1  0  0  0  0
 29 52  1  0  0  0  0
 30 31  1  0  0  0  0
 31 53  1  0  0  0  0
 31 54  1  0  0  0  0
 31 55  1  0  0  0  0
M  END
$$$$
