18639-1
 OpenBabel02232411163D
Structure written by MMmdl.
 48 49  0  0  0  0  0  0  0  0999 V2000
   24.4410   10.9520   30.7580 C   0  0  0  0  0  0  0  0  0  0  0  0
   23.1090   11.2820   30.1170 C   0  0  0  0  0  0  0  0  0  0  0  0
   22.0340   11.3390   31.1300 O   0  0  0  0  0  0  0  0  0  0  0  0
   21.4530   10.1880   31.5400 C   0  0  0  0  0  0  0  0  0  0  0  0
   21.9360    9.0000   31.1080 N   0  0  0  0  0  0  0  0  0  0  0  0
   21.2430    7.8560   31.4760 C   0  0  0  0  0  0  0  0  0  0  0  0
   20.1070    7.8870   32.2760 C   0  0  0  0  0  0  0  0  0  0  0  0
   19.6150    9.1380   32.7370 C   0  0  0  0  0  0  0  0  0  0  0  0
   18.4810    9.1740   33.5080 N   0  0  0  0  0  0  0  0  0  0  0  0
   20.3020   10.3400   32.3710 C   0  0  0  0  0  0  0  0  0  0  0  0
   19.8870   11.6380   32.7350 C   0  0  0  0  0  0  0  0  0  0  0  0
   19.5980   12.7320   32.9920 N   0  0  0  0  0  0  0  0  0  0  0  0
   21.8320    6.6940   30.9260 N   0  0  0  0  0  0  0  0  0  0  0  0
   21.2750    5.3990   30.8830 C   0  0  0  0  0  0  0  0  0  0  0  0
   20.2050    5.1210   31.3810 O   0  0  0  0  0  0  0  0  0  0  0  0
   22.1140    4.4110   30.0790 C   0  0  0  0  0  0  0  0  0  0  0  0
   23.4930    4.1770   30.6230 C   0  0  0  0  0  0  0  0  0  0  0  0
   24.5680    5.0610   30.2910 C   0  0  0  0  0  0  0  0  0  0  0  0
   24.1800    6.1070   29.4630 O   0  0  0  0  0  0  0  0  0  0  0  0
   25.1110    7.2130   29.2910 C   0  0  0  0  0  0  0  0  0  0  0  0
   25.8600    4.8400   30.7420 C   0  0  0  0  0  0  0  0  0  0  0  0
   26.1250    3.7280   31.5690 C   0  0  0  0  0  0  0  0  0  0  0  0
   27.4900    3.4980   32.0490 N   0  3  0  0  0  0  0  0  0  0  0  0
   27.6580    2.6860   32.9460 O   0  5  0  0  0  0  0  0  0  0  0  0
   28.4070    4.1230   31.5280 O   0  0  0  0  0  0  0  0  0  0  0  0
   25.0750    2.8440   31.9070 C   0  0  0  0  0  0  0  0  0  0  0  0
   23.7680    3.0760   31.4180 C   0  0  0  0  0  0  0  0  0  0  0  0
   25.4540    1.8100   32.7100 O   0  0  0  0  0  0  0  0  0  0  0  0
   24.4780    0.7560   32.9660 C   0  0  0  0  0  0  0  0  0  0  0  0
   25.2290   10.9030   29.9650 H   0  0  0  0  0  0  0  0  0  0  0  0
   24.7330   11.7280   31.4980 H   0  0  0  0  0  0  0  0  0  0  0  0
   24.4090    9.9590   31.2640 H   0  0  0  0  0  0  0  0  0  0  0  0
   23.0670   12.3350   29.7470 H   0  0  0  0  0  0  0  0  0  0  0  0
   22.8320   10.5520   29.3230 H   0  0  0  0  0  0  0  0  0  0  0  0
   19.5760    6.9690   32.5380 H   0  0  0  0  0  0  0  0  0  0  0  0
   17.9800    8.3000   33.7590 H   0  0  0  0  0  0  0  0  0  0  0  0
   18.0690   10.0580   33.8070 H   0  0  0  0  0  0  0  0  0  0  0  0
   22.7370    6.8560   30.4140 H   0  0  0  0  0  0  0  0  0  0  0  0
   21.5610    3.4340   30.0370 H   0  0  0  0  0  0  0  0  0  0  0  0
   22.2030    4.8110   29.0290 H   0  0  0  0  0  0  0  0  0  0  0  0
   25.4650    7.5880   30.2750 H   0  0  0  0  0  0  0  0  0  0  0  0
   25.9450    6.8820   28.6360 H   0  0  0  0  0  0  0  0  0  0  0  0
   24.4620    7.9650   28.7840 H   0  0  0  0  0  0  0  0  0  0  0  0
   26.6850    5.5030   30.4560 H   0  0  0  0  0  0  0  0  0  0  0  0
   22.9680    2.3720   31.6630 H   0  0  0  0  0  0  0  0  0  0  0  0
   25.0880    0.0310   33.5560 H   0  0  0  0  0  0  0  0  0  0  0  0
   23.6360    1.1540   33.5710 H   0  0  0  0  0  0  0  0  0  0  0  0
   24.1400    0.3060   32.0070 H   0  0  0  0  0  0  0  0  0  0  0  0
  1  2  1  0  0  0  0
  1 30  1  0  0  0  0
  1 31  1  0  0  0  0
  1 32  1  0  0  0  0
  2  3  1  0  0  0  0
  2 33  1  0  0  0  0
  2 34  1  0  0  0  0
  3  4  1  0  0  0  0
  4 10  2  0  0  0  0
  4  5  1  0  0  0  0
  5  6  2  0  0  0  0
  6  7  1  0  0  0  0
  6 13  1  0  0  0  0
  7  8  2  0  0  0  0
  7 35  1  0  0  0  0
  8  9  1  0  0  0  0
  8 10  1  0  0  0  0
  9 36  1  0  0  0  0
  9 37  1  0  0  0  0
 10 11  1  0  0  0  0
 11 12  3  0  0  0  0
 13 14  1  0  0  0  0
 13 38  1  0  0  0  0
 14 15  2  0  0  0  0
 14 16  1  0  0  0  0
 16 17  1  0  0  0  0
 16 39  1  0  0  0  0
 16 40  1  0  0  0  0
 17 27  2  0  0  0  0
 17 18  1  0  0  0  0
 18 19  1  0  0  0  0
 18 21  2  0  0  0  0
 19 20  1  0  0  0  0
 20 41  1  0  0  0  0
 20 42  1  0  0  0  0
 20 43  1  0  0  0  0
 21 22  1  0  0  0  0
 21 44  1  0  0  0  0
 22 23  1  0  0  0  0
 22 26  2  0  0  0  0
 23 24  1  0  0  0  0
 23 25  2  0  0  0  0
 26 27  1  0  0  0  0
 26 28  1  0  0  0  0
 27 45  1  0  0  0  0
 28 29  1  0  0  0  0
 29 46  1  0  0  0  0
 29 47  1  0  0  0  0
 29 48  1  0  0  0  0
M  CHG  2  23   1  24  -1
M  END
$$$$
