1oiu
 OpenBabel02232411153D
Structure written by MMmdl.
 50 53  0  0  0  0  0  0  0  0999 V2000
    1.9630   28.7470    6.7440 C   0  0  0  0  0  0  0  0  0  0  0  0
   -1.4630   31.4170    7.9060 C   0  0  0  0  0  0  0  0  0  0  0  0
   -0.0360   25.9400    8.9190 C   0  0  0  0  0  0  0  0  0  0  0  0
   -0.8460   25.2640   10.0330 C   0  0  0  0  0  0  0  0  0  0  0  0
   -0.6990   23.7360    9.8510 C   0  0  0  0  0  0  0  0  0  0  0  0
   -1.3680   22.9670   10.9970 C   0  0  0  0  0  0  0  0  0  0  0  0
   -0.8400   23.4230   12.3660 C   0  0  0  0  0  0  0  0  0  0  0  0
   -1.0250   24.9370   12.5530 C   0  0  0  0  0  0  0  0  0  0  0  0
   -0.3510   25.7220   11.4190 C   0  0  0  0  0  0  0  0  0  0  0  0
    5.4220   25.4280    5.6340 C   0  0  0  0  0  0  0  0  0  0  0  0
    5.3260   24.7560    6.8590 C   0  0  0  0  0  0  0  0  0  0  0  0
    4.5170   25.2710    7.8750 C   0  0  0  0  0  0  0  0  0  0  0  0
    3.7920   26.4480    7.6860 C   0  0  0  0  0  0  0  0  0  0  0  0
    1.2470   27.8190    7.4940 N   0  0  0  0  0  0  0  0  0  0  0  0
    0.0550   28.1730    8.0410 C   0  0  0  0  0  0  0  0  0  0  0  0
   -0.6350   27.2930    8.7810 O   0  0  0  0  0  0  0  0  0  0  0  0
   -0.4550   29.4840    7.8490 C   0  0  0  0  0  0  0  0  0  0  0  0
   -1.5910   30.1530    8.3180 N   0  0  0  0  0  0  0  0  0  0  0  0
   -0.2480   31.6280    7.1630 N   0  0  0  0  0  0  0  0  0  0  0  0
    0.3920   30.3940    7.0940 C   0  0  0  0  0  0  0  0  0  0  0  0
    1.5820   30.0560    6.4980 N   0  0  0  0  0  0  0  0  0  0  0  0
    3.1440   28.3130    6.1470 N   0  0  0  0  0  0  0  0  0  0  0  0
    3.8680   27.1120    6.4490 C   0  0  0  0  0  0  0  0  0  0  0  0
    4.7150   26.6120    5.4290 C   0  0  0  0  0  0  0  0  0  0  0  0
   -2.1510   32.2360    8.0950 H   0  0  0  0  0  0  0  0  0  0  0  0
    1.0370   26.0410    9.1940 H   0  0  0  0  0  0  0  0  0  0  0  0
   -0.1700   25.4480    7.9340 H   0  0  0  0  0  0  0  0  0  0  0  0
   -1.9240   25.5390    9.9390 H   0  0  0  0  0  0  0  0  0  0  0  0
   -1.1670   23.4320    8.8890 H   0  0  0  0  0  0  0  0  0  0  0  0
    0.3870   23.4690    9.8250 H   0  0  0  0  0  0  0  0  0  0  0  0
   -2.4660   23.1410   10.9620 H   0  0  0  0  0  0  0  0  0  0  0  0
   -1.1720   21.8760   10.8770 H   0  0  0  0  0  0  0  0  0  0  0  0
   -1.3850   22.8810   13.1730 H   0  0  0  0  0  0  0  0  0  0  0  0
    0.2440   23.1760   12.4370 H   0  0  0  0  0  0  0  0  0  0  0  0
   -2.1120   25.1780   12.5910 H   0  0  0  0  0  0  0  0  0  0  0  0
   -0.5650   25.2440   13.5210 H   0  0  0  0  0  0  0  0  0  0  0  0
    0.7530   25.5690   11.4940 H   0  0  0  0  0  0  0  0  0  0  0  0
   -0.5630   26.8080   11.5470 H   0  0  0  0  0  0  0  0  0  0  0  0
    5.8850   23.8330    7.0420 H   0  0  0  0  0  0  0  0  0  0  0  0
    4.4420   24.7440    8.8300 H   0  0  0  0  0  0  0  0  0  0  0  0
    3.1760   26.8320    8.5010 H   0  0  0  0  0  0  0  0  0  0  0  0
    0.0240   32.5090    6.7050 H   0  0  0  0  0  0  0  0  0  0  0  0
    3.6840   29.0070    5.5790 H   0  0  0  0  0  0  0  0  0  0  0  0
    4.8060   27.1750    4.4940 H   0  0  0  0  0  0  0  0  0  0  0  0
    6.4140   24.7160    4.3910 S   0  0  0  0  0  0  0  0  0  0  0  0
    6.0440   23.3110    4.1440 O   0  0  0  0  0  0  0  0  0  0  0  0
    6.4210   25.5300    3.1680 O   0  0  0  0  0  0  0  0  0  0  0  0
    7.9580   24.7240    5.1240 N   0  0  0  0  0  0  0  0  0  0  0  0
    8.6560   24.0230    4.8290 H   0  0  0  0  0  0  0  0  0  0  0  0
    8.3980   25.6610    5.2740 H   0  0  0  0  0  0  0  0  0  0  0  0
  1 14  2  0  0  0  0
  1 21  1  0  0  0  0
  1 22  1  0  0  0  0
  2 18  2  0  0  0  0
  2 19  1  0  0  0  0
  2 25  1  0  0  0  0
  3  4  1  0  0  0  0
  3 16  1  0  0  0  0
  3 26  1  0  0  0  0
  3 27  1  0  0  0  0
  4  5  1  0  0  0  0
  4  9  1  0  0  0  0
  4 28  1  0  0  0  0
  5  6  1  0  0  0  0
  5 29  1  0  0  0  0
  5 30  1  0  0  0  0
  6  7  1  0  0  0  0
  6 31  1  0  0  0  0
  6 32  1  0  0  0  0
  7  8  1  0  0  0  0
  7 33  1  0  0  0  0
  7 34  1  0  0  0  0
  8  9  1  0  0  0  0
  8 35  1  0  0  0  0
  8 36  1  0  0  0  0
  9 37  1  0  0  0  0
  9 38  1  0  0  0  0
 10 11  2  0  0  0  0
 10 24  1  0  0  0  0
 10 45  1  0  0  0  0
 11 12  1  0  0  0  0
 11 39  1  0  0  0  0
 12 13  2  0  0  0  0
 12 40  1  0  0  0  0
 13 23  1  0  0  0  0
 13 41  1  0  0  0  0
 14 15  1  0  0  0  0
 15 16  1  0  0  0  0
 15 17  2  0  0  0  0
 17 18  1  0  0  0  0
 17 20  1  0  0  0  0
 19 20  1  0  0  0  0
 19 42  1  0  0  0  0
 20 21  2  0  0  0  0
 22 23  1  0  0  0  0
 22 43  1  0  0  0  0
 23 24  2  0  0  0  0
 24 44  1  0  0  0  0
 45 46  2  0  0  0  0
 45 47  2  0  0  0  0
 45 48  1  0  0  0  0
 48 49  1  0  0  0  0
 48 50  1  0  0  0  0
M  END
$$$$
