p38a_2z
 OpenBabel02232411163D
Structure written by MMmdl.
 45 47  0  0  0  0  0  0  0  0999 V2000
   36.3610   36.0240   15.8480 C   0  0  0  0  0  0  0  0  0  0  0  0
   34.5440   35.0420   21.4150 C   0  0  0  0  0  0  0  0  0  0  0  0
   35.6610   35.5780   16.9650 C   0  0  0  0  0  0  0  0  0  0  0  0
   34.1210   39.1100   24.0020 C   0  0  0  0  0  0  0  0  0  0  0  0
   33.7420   39.0900   26.5380 C   0  0  0  0  0  0  0  0  0  0  0  0
   34.7550   37.9060   21.5950 C   0  0  0  0  0  0  0  0  0  0  0  0
   35.1620   37.2450   20.3840 C   0  0  0  0  0  0  0  0  0  0  0  0
   37.6560   36.5080   16.0750 C   0  0  0  0  0  0  0  0  0  0  0  0
   38.2650   36.5200   17.3320 C   0  0  0  0  0  0  0  0  0  0  0  0
   37.5280   36.0990   18.4460 C   0  0  0  0  0  0  0  0  0  0  0  0
   34.3690   37.1390   22.7350 C   0  0  0  0  0  0  0  0  0  0  0  0
   34.7310   39.3200   21.7410 C   0  0  0  0  0  0  0  0  0  0  0  0
   35.0920   35.8960   20.3260 C   0  0  0  0  0  0  0  0  0  0  0  0
   36.2240   35.6320   18.2570 C   0  0  0  0  0  0  0  0  0  0  0  0
   33.8880   34.9590   23.8510 C   0  0  0  0  0  0  0  0  0  0  0  0
   34.4410   35.0730   16.8390 F   0  0  0  0  0  0  0  0  0  0  0  0
   35.4440   35.0590   19.2680 O   0  0  0  0  0  0  0  0  0  0  0  0
   34.4240   39.9320   22.8940 N   0  0  0  0  0  0  0  0  0  0  0  0
   34.3140   33.8560   21.3270 O   0  0  0  0  0  0  0  0  0  0  0  0
   34.2790   35.7400   22.6440 N   0  0  0  0  0  0  0  0  0  0  0  0
   34.0640   37.7320   23.9340 N   0  0  0  0  0  0  0  0  0  0  0  0
   33.8010   39.7480   25.1790 N   0  0  0  0  0  0  0  0  0  0  0  0
   35.9170   36.0210   14.8500 H   0  0  0  0  0  0  0  0  0  0  0  0
   33.4980   40.2140   27.5600 C   0  0  0  0  0  0  0  0  0  0  0  0
   35.5280   37.8610   19.5580 H   0  0  0  0  0  0  0  0  0  0  0  0
   39.2900   36.8800   17.4530 H   0  0  0  0  0  0  0  0  0  0  0  0
   37.9690   36.1610   19.4430 H   0  0  0  0  0  0  0  0  0  0  0  0
   34.9720   39.9630   20.8780 H   0  0  0  0  0  0  0  0  0  0  0  0
   34.5680   35.2150   24.7080 H   0  0  0  0  0  0  0  0  0  0  0  0
   32.8330   35.2080   24.1450 H   0  0  0  0  0  0  0  0  0  0  0  0
   33.9640   33.8600   23.6440 H   0  0  0  0  0  0  0  0  0  0  0  0
   33.8800   40.7880   25.2060 H   0  0  0  0  0  0  0  0  0  0  0  0
   38.3210   37.0160   15.0400 F   0  0  0  0  0  0  0  0  0  0  0  0
   32.5330   38.0980   26.5440 C   0  0  0  0  0  0  0  0  0  0  0  0
   35.0650   38.3710   26.8450 C   0  0  0  0  0  0  0  0  0  0  0  0
   32.1820   37.7350   27.8880 O   0  0  0  0  0  0  0  0  0  0  0  0
   32.8960   37.1650   28.2710 H   0  0  0  0  0  0  0  0  0  0  0  0
   31.6100   38.6000   26.1730 H   0  0  0  0  0  0  0  0  0  0  0  0
   32.7640   37.1730   25.9700 H   0  0  0  0  0  0  0  0  0  0  0  0
   35.0890   38.0600   27.9150 H   0  0  0  0  0  0  0  0  0  0  0  0
   35.1920   37.4620   26.2150 H   0  0  0  0  0  0  0  0  0  0  0  0
   35.9280   39.0510   26.6690 H   0  0  0  0  0  0  0  0  0  0  0  0
   33.3400   39.7720   28.5700 H   0  0  0  0  0  0  0  0  0  0  0  0
   34.3700   40.9060   27.6090 H   0  0  0  0  0  0  0  0  0  0  0  0
   32.5950   40.8070   27.2940 H   0  0  0  0  0  0  0  0  0  0  0  0
  1  3  2  0  0  0  0
  1  8  1  0  0  0  0
  1 23  1  0  0  0  0
  2 13  1  0  0  0  0
  2 19  2  0  0  0  0
  2 20  1  0  0  0  0
  3 14  1  0  0  0  0
  3 16  1  0  0  0  0
  4 18  2  0  0  0  0
  4 21  1  0  0  0  0
  4 22  1  0  0  0  0
  5 22  1  0  0  0  0
  5 24  1  0  0  0  0
  5 34  1  0  0  0  0
  5 35  1  0  0  0  0
  6  7  1  0  0  0  0
  6 11  1  0  0  0  0
  6 12  2  0  0  0  0
  7 13  2  0  0  0  0
  7 25  1  0  0  0  0
  8  9  2  0  0  0  0
  8 33  1  0  0  0  0
  9 10  1  0  0  0  0
  9 26  1  0  0  0  0
 10 14  2  0  0  0  0
 10 27  1  0  0  0  0
 11 20  1  0  0  0  0
 11 21  2  0  0  0  0
 12 18  1  0  0  0  0
 12 28  1  0  0  0  0
 13 17  1  0  0  0  0
 14 17  1  0  0  0  0
 15 20  1  0  0  0  0
 15 29  1  0  0  0  0
 15 30  1  0  0  0  0
 15 31  1  0  0  0  0
 22 32  1  0  0  0  0
 24 43  1  0  0  0  0
 24 44  1  0  0  0  0
 24 45  1  0  0  0  0
 34 36  1  0  0  0  0
 34 38  1  0  0  0  0
 34 39  1  0  0  0  0
 35 40  1  0  0  0  0
 35 41  1  0  0  0  0
 35 42  1  0  0  0  0
 36 37  1  0  0  0  0
M  END
$$$$
