18629-1
 OpenBabel02232411163D
Structure written by MMmdl.
 41 42  0  0  0  0  0  0  0  0999 V2000
   23.8410   12.6380   30.3550 C   0  0  0  0  0  0  0  0  0  0  0  0
   23.4020   11.1890   30.4470 C   0  0  0  0  0  0  0  0  0  0  0  0
   22.1570   11.2670   31.2550 O   0  0  0  0  0  0  0  0  0  0  0  0
   21.5280   10.1210   31.5850 C   0  0  0  0  0  0  0  0  0  0  0  0
   22.0100    8.9380   31.1340 N   0  0  0  0  0  0  0  0  0  0  0  0
   21.2930    7.7930   31.4490 C   0  0  0  0  0  0  0  0  0  0  0  0
   20.1440    7.8160   32.2340 C   0  0  0  0  0  0  0  0  0  0  0  0
   19.6490    9.0610   32.7080 C   0  0  0  0  0  0  0  0  0  0  0  0
   18.5040    9.0940   33.4630 N   0  0  0  0  0  0  0  0  0  0  0  0
   20.3460   10.2650   32.3720 C   0  0  0  0  0  0  0  0  0  0  0  0
   19.9180   11.5600   32.7340 C   0  0  0  0  0  0  0  0  0  0  0  0
   19.6160   12.6510   32.9880 N   0  0  0  0  0  0  0  0  0  0  0  0
   21.8650    6.6400   30.8630 N   0  0  0  0  0  0  0  0  0  0  0  0
   21.3290    5.3260   30.8570 C   0  0  0  0  0  0  0  0  0  0  0  0
   20.2980    5.0390   31.4250 O   0  0  0  0  0  0  0  0  0  0  0  0
   22.1490    4.3510   30.0270 C   0  0  0  0  0  0  0  0  0  0  0  0
   23.5000    4.0880   30.6410 C   0  0  0  0  0  0  0  0  0  0  0  0
   23.6340    3.1040   31.6290 C   0  0  0  0  0  0  0  0  0  0  0  0
   24.8710    2.8900   32.2570 C   0  0  0  0  0  0  0  0  0  0  0  0
   25.0110    1.8800   33.3480 C   0  0  0  0  0  0  0  0  0  0  0  0
   25.9860    3.6470   31.8550 C   0  0  0  0  0  0  0  0  0  0  0  0
   25.8580    4.6020   30.8470 C   0  0  0  0  0  0  0  0  0  0  0  0
   24.6190    4.8290   30.2380 C   0  0  0  0  0  0  0  0  0  0  0  0
   24.0980   13.0510   31.3560 H   0  0  0  0  0  0  0  0  0  0  0  0
   23.0440   13.2700   29.8990 H   0  0  0  0  0  0  0  0  0  0  0  0
   24.7480   12.6960   29.7010 H   0  0  0  0  0  0  0  0  0  0  0  0
   23.1330   10.7620   29.4550 H   0  0  0  0  0  0  0  0  0  0  0  0
   24.1330   10.5530   30.9950 H   0  0  0  0  0  0  0  0  0  0  0  0
   19.6050    6.8980   32.4750 H   0  0  0  0  0  0  0  0  0  0  0  0
   18.0100    8.2220   33.7300 H   0  0  0  0  0  0  0  0  0  0  0  0
   18.1000    9.9780   33.7760 H   0  0  0  0  0  0  0  0  0  0  0  0
   22.7590    6.8040   30.3550 H   0  0  0  0  0  0  0  0  0  0  0  0
   21.5820    3.3860   29.9430 H   0  0  0  0  0  0  0  0  0  0  0  0
   22.2690    4.7710   28.9940 H   0  0  0  0  0  0  0  0  0  0  0  0
   22.7780    2.4880   31.9070 H   0  0  0  0  0  0  0  0  0  0  0  0
   25.1770    2.3960   34.3270 H   0  0  0  0  0  0  0  0  0  0  0  0
   24.1070    1.2330   33.4440 H   0  0  0  0  0  0  0  0  0  0  0  0
   25.8900    1.2130   33.1590 H   0  0  0  0  0  0  0  0  0  0  0  0
   26.9570    3.4870   32.3300 H   0  0  0  0  0  0  0  0  0  0  0  0
   26.7310    5.1810   30.5290 H   0  0  0  0  0  0  0  0  0  0  0  0
   24.5480    5.5800   29.4490 H   0  0  0  0  0  0  0  0  0  0  0  0
  1  2  1  0  0  0  0
  1 24  1  0  0  0  0
  1 25  1  0  0  0  0
  1 26  1  0  0  0  0
  2  3  1  0  0  0  0
  2 27  1  0  0  0  0
  2 28  1  0  0  0  0
  3  4  1  0  0  0  0
  4 10  2  0  0  0  0
  4  5  1  0  0  0  0
  5  6  2  0  0  0  0
  6  7  1  0  0  0  0
  6 13  1  0  0  0  0
  7  8  2  0  0  0  0
  7 29  1  0  0  0  0
  8  9  1  0  0  0  0
  8 10  1  0  0  0  0
  9 30  1  0  0  0  0
  9 31  1  0  0  0  0
 10 11  1  0  0  0  0
 11 12  3  0  0  0  0
 13 14  1  0  0  0  0
 13 32  1  0  0  0  0
 14 15  2  0  0  0  0
 14 16  1  0  0  0  0
 16 17  1  0  0  0  0
 16 33  1  0  0  0  0
 16 34  1  0  0  0  0
 17 23  2  0  0  0  0
 17 18  1  0  0  0  0
 18 19  2  0  0  0  0
 18 35  1  0  0  0  0
 19 20  1  0  0  0  0
 19 21  1  0  0  0  0
 20 36  1  0  0  0  0
 20 37  1  0  0  0  0
 20 38  1  0  0  0  0
 21 22  2  0  0  0  0
 21 39  1  0  0  0  0
 22 23  1  0  0  0  0
 22 40  1  0  0  0  0
 23 41  1  0  0  0  0
M  END
$$$$
