17124-1
 OpenBabel02232411163D
Structure written by MMmdl.
 46 47  0  0  0  0  0  0  0  0999 V2000
   23.8160   12.6770   30.3500 C   0  0  0  0  0  0  0  0  0  0  0  0
   23.3690   11.2310   30.4490 C   0  0  0  0  0  0  0  0  0  0  0  0
   22.1230   11.3200   31.2520 O   0  0  0  0  0  0  0  0  0  0  0  0
   21.4930   10.1760   31.5920 C   0  0  0  0  0  0  0  0  0  0  0  0
   21.9750    8.9910   31.1490 N   0  0  0  0  0  0  0  0  0  0  0  0
   21.2450    7.8510   31.4570 C   0  0  0  0  0  0  0  0  0  0  0  0
   20.0910    7.8840   32.2330 C   0  0  0  0  0  0  0  0  0  0  0  0
   19.6050    9.1300   32.7100 C   0  0  0  0  0  0  0  0  0  0  0  0
   18.4640    9.1660   33.4710 N   0  0  0  0  0  0  0  0  0  0  0  0
   20.3080   10.3300   32.3720 C   0  0  0  0  0  0  0  0  0  0  0  0
   19.8810   11.6280   32.7240 C   0  0  0  0  0  0  0  0  0  0  0  0
   19.5770   12.7200   32.9700 N   0  0  0  0  0  0  0  0  0  0  0  0
   21.8070    6.6920   30.8770 N   0  0  0  0  0  0  0  0  0  0  0  0
   21.2010    5.4170   30.7920 C   0  0  0  0  0  0  0  0  0  0  0  0
   20.1280    5.1670   31.2990 O   0  0  0  0  0  0  0  0  0  0  0  0
   21.9870    4.4240   29.9460 C   0  0  0  0  0  0  0  0  0  0  0  0
   23.3180    4.0640   30.5370 C   0  0  0  0  0  0  0  0  0  0  0  0
   24.4550    4.8770   30.2960 C   0  0  0  0  0  0  0  0  0  0  0  0
   24.1880    5.9630   29.4740 O   0  0  0  0  0  0  0  0  0  0  0  0
   25.2190    6.9770   29.3340 C   0  0  0  0  0  0  0  0  0  0  0  0
   25.7090    4.5660   30.8300 C   0  0  0  0  0  0  0  0  0  0  0  0
   25.8420    3.4230   31.6170 C   0  0  0  0  0  0  0  0  0  0  0  0
   27.5500    2.9960   32.3350 Br  0  0  0  0  0  0  0  0  0  0  0  0
   24.7270    2.5960   31.8600 C   0  0  0  0  0  0  0  0  0  0  0  0
   23.4730    2.9140   31.3130 C   0  0  0  0  0  0  0  0  0  0  0  0
   25.0030    1.5190   32.6680 O   0  0  0  0  0  0  0  0  0  0  0  0
   23.9850    0.4930   32.8000 C   0  0  0  0  0  0  0  0  0  0  0  0
   24.7360   12.7240   29.7150 H   0  0  0  0  0  0  0  0  0  0  0  0
   23.0310   13.3070   29.8690 H   0  0  0  0  0  0  0  0  0  0  0  0
   24.0520   13.1000   31.3520 H   0  0  0  0  0  0  0  0  0  0  0  0
   23.1020   10.7990   29.4590 H   0  0  0  0  0  0  0  0  0  0  0  0
   24.0960   10.5950   31.0020 H   0  0  0  0  0  0  0  0  0  0  0  0
   19.5390    6.9700   32.4660 H   0  0  0  0  0  0  0  0  0  0  0  0
   17.9580    8.2930   33.7170 H   0  0  0  0  0  0  0  0  0  0  0  0
   18.0570   10.0490   33.7780 H   0  0  0  0  0  0  0  0  0  0  0  0
   22.7260    6.8350   30.3880 H   0  0  0  0  0  0  0  0  0  0  0  0
   21.3670    3.4990   29.8180 H   0  0  0  0  0  0  0  0  0  0  0  0
   22.1480    4.8840   28.9310 H   0  0  0  0  0  0  0  0  0  0  0  0
   24.6810    7.7570   28.7470 H   0  0  0  0  0  0  0  0  0  0  0  0
   25.5250    7.3640   30.3290 H   0  0  0  0  0  0  0  0  0  0  0  0
   26.0760    6.5600   28.7630 H   0  0  0  0  0  0  0  0  0  0  0  0
   26.5820    5.1990   30.6300 H   0  0  0  0  0  0  0  0  0  0  0  0
   22.6150    2.2620   31.4940 H   0  0  0  0  0  0  0  0  0  0  0  0
   24.5130   -0.2600   33.4350 H   0  0  0  0  0  0  0  0  0  0  0  0
   23.0910    0.8960   33.3220 H   0  0  0  0  0  0  0  0  0  0  0  0
   23.7380    0.0690   31.8030 H   0  0  0  0  0  0  0  0  0  0  0  0
  1  2  1  0  0  0  0
  1 28  1  0  0  0  0
  1 29  1  0  0  0  0
  1 30  1  0  0  0  0
  2  3  1  0  0  0  0
  2 31  1  0  0  0  0
  2 32  1  0  0  0  0
  3  4  1  0  0  0  0
  4 10  2  0  0  0  0
  4  5  1  0  0  0  0
  5  6  2  0  0  0  0
  6  7  1  0  0  0  0
  6 13  1  0  0  0  0
  7  8  2  0  0  0  0
  7 33  1  0  0  0  0
  8  9  1  0  0  0  0
  8 10  1  0  0  0  0
  9 34  1  0  0  0  0
  9 35  1  0  0  0  0
 10 11  1  0  0  0  0
 11 12  3  0  0  0  0
 13 14  1  0  0  0  0
 13 36  1  0  0  0  0
 14 15  2  0  0  0  0
 14 16  1  0  0  0  0
 16 17  1  0  0  0  0
 16 37  1  0  0  0  0
 16 38  1  0  0  0  0
 17 25  2  0  0  0  0
 17 18  1  0  0  0  0
 18 19  1  0  0  0  0
 18 21  2  0  0  0  0
 19 20  1  0  0  0  0
 20 39  1  0  0  0  0
 20 40  1  0  0  0  0
 20 41  1  0  0  0  0
 21 22  1  0  0  0  0
 21 42  1  0  0  0  0
 22 23  1  0  0  0  0
 22 24  2  0  0  0  0
 24 25  1  0  0  0  0
 24 26  1  0  0  0  0
 25 43  1  0  0  0  0
 26 27  1  0  0  0  0
 27 44  1  0  0  0  0
 27 45  1  0  0  0  0
 27 46  1  0  0  0  0
M  END
$$$$
