p38a_3flw
 OpenBabel02232411163D
Structure written by MMmdl.
 49 51  0  0  0  0  0  0  0  0999 V2000
   36.4090   36.1350   15.6700 C   0  0  0  0  0  0  0  0  0  0  0  0
   37.6940   36.6740   15.8190 C   0  0  0  0  0  0  0  0  0  0  0  0
   32.4950   39.6660   27.1270 C   0  0  0  0  0  0  0  0  0  0  0  0
   33.8250   40.0590   27.7780 C   0  0  0  0  0  0  0  0  0  0  0  0
   31.2830   38.0920   25.5620 C   0  0  0  0  0  0  0  0  0  0  0  0
   33.3940   34.7670   23.2730 C   0  0  0  0  0  0  0  0  0  0  0  0
   34.6230   35.0430   16.7610 F   0  0  0  0  0  0  0  0  0  0  0  0
   35.8220   35.6090   16.8160 C   0  0  0  0  0  0  0  0  0  0  0  0
   38.2590   37.2360   14.7540 F   0  0  0  0  0  0  0  0  0  0  0  0
   38.3910   36.6810   17.0290 C   0  0  0  0  0  0  0  0  0  0  0  0
   37.7620   36.1840   18.1770 C   0  0  0  0  0  0  0  0  0  0  0  0
   36.4780   35.6460   18.0630 C   0  0  0  0  0  0  0  0  0  0  0  0
   35.8340   34.9850   19.1170 O   0  0  0  0  0  0  0  0  0  0  0  0
   35.2780   35.8020   20.0980 C   0  0  0  0  0  0  0  0  0  0  0  0
   35.3400   37.1490   20.2020 C   0  0  0  0  0  0  0  0  0  0  0  0
   34.7400   37.7830   21.3450 C   0  0  0  0  0  0  0  0  0  0  0  0
   34.7220   39.1920   21.5320 C   0  0  0  0  0  0  0  0  0  0  0  0
   34.2180   39.7820   22.6260 N   0  0  0  0  0  0  0  0  0  0  0  0
   34.5610   34.9220   21.0600 C   0  0  0  0  0  0  0  0  0  0  0  0
   34.3920   33.7290   20.9220 O   0  0  0  0  0  0  0  0  0  0  0  0
   34.0490   35.5960   22.2220 N   0  0  0  0  0  0  0  0  0  0  0  0
   34.1440   36.9910   22.3720 C   0  0  0  0  0  0  0  0  0  0  0  0
   33.6440   37.5590   23.5150 N   0  0  0  0  0  0  0  0  0  0  0  0
   33.6900   38.9370   23.6250 C   0  0  0  0  0  0  0  0  0  0  0  0
   33.1830   39.5260   24.7560 N   0  0  0  0  0  0  0  0  0  0  0  0
   32.6470   38.7330   25.9140 C   0  0  0  0  0  0  0  0  0  0  0  0
   31.0350   36.8180   26.3810 C   0  0  0  0  0  0  0  0  0  0  0  0
   30.7020   37.1440   27.7480 O   0  0  0  0  0  0  0  0  0  0  0  0
   33.5870   40.6560   29.0660 O   0  0  0  0  0  0  0  0  0  0  0  0
   35.8890   36.1480   14.7110 H   0  0  0  0  0  0  0  0  0  0  0  0
   31.8600   39.1260   27.8810 H   0  0  0  0  0  0  0  0  0  0  0  0
   31.9560   40.5910   26.8200 H   0  0  0  0  0  0  0  0  0  0  0  0
   34.4510   39.1700   28.0170 H   0  0  0  0  0  0  0  0  0  0  0  0
   34.3750   40.7920   27.1440 H   0  0  0  0  0  0  0  0  0  0  0  0
   30.4630   38.8250   25.7410 H   0  0  0  0  0  0  0  0  0  0  0  0
   31.2650   37.8100   24.4800 H   0  0  0  0  0  0  0  0  0  0  0  0
   32.8890   35.4140   24.0420 H   0  0  0  0  0  0  0  0  0  0  0  0
   32.6160   34.1080   22.8080 H   0  0  0  0  0  0  0  0  0  0  0  0
   34.1640   34.1380   23.7920 H   0  0  0  0  0  0  0  0  0  0  0  0
   39.3980   37.0970   17.0990 H   0  0  0  0  0  0  0  0  0  0  0  0
   38.2710   36.2440   19.1420 H   0  0  0  0  0  0  0  0  0  0  0  0
   35.8360   37.7840   19.4650 H   0  0  0  0  0  0  0  0  0  0  0  0
   35.1300   39.8530   20.7500 H   0  0  0  0  0  0  0  0  0  0  0  0
   33.2240   40.5560   24.8670 H   0  0  0  0  0  0  0  0  0  0  0  0
   33.3950   37.9230   26.1430 H   0  0  0  0  0  0  0  0  0  0  0  0
   30.2060   36.2260   25.9340 H   0  0  0  0  0  0  0  0  0  0  0  0
   31.9620   36.2050   26.4740 H   0  0  0  0  0  0  0  0  0  0  0  0
   29.6990   37.0350   27.8580 H   0  0  0  0  0  0  0  0  0  0  0  0
   33.0280   41.4870   28.9240 H   0  0  0  0  0  0  0  0  0  0  0  0
  1  2  2  0  0  0  0
  1  8  1  0  0  0  0
  1 30  1  0  0  0  0
  2  9  1  0  0  0  0
  2 10  1  0  0  0  0
  3  4  1  0  0  0  0
  3 26  1  0  0  0  0
  3 31  1  0  0  0  0
  3 32  1  0  0  0  0
  4 29  1  0  0  0  0
  4 33  1  0  0  0  0
  4 34  1  0  0  0  0
  5 26  1  0  0  0  0
  5 27  1  0  0  0  0
  5 35  1  0  0  0  0
  5 36  1  0  0  0  0
  6 21  1  0  0  0  0
  6 37  1  0  0  0  0
  6 38  1  0  0  0  0
  6 39  1  0  0  0  0
  7  8  1  0  0  0  0
  8 12  2  0  0  0  0
 10 11  2  0  0  0  0
 10 40  1  0  0  0  0
 11 12  1  0  0  0  0
 11 41  1  0  0  0  0
 12 13  1  0  0  0  0
 13 14  1  0  0  0  0
 14 15  2  0  0  0  0
 14 19  1  0  0  0  0
 15 16  1  0  0  0  0
 15 42  1  0  0  0  0
 16 17  2  0  0  0  0
 16 22  1  0  0  0  0
 17 18  1  0  0  0  0
 17 43  1  0  0  0  0
 18 24  2  0  0  0  0
 19 20  2  0  0  0  0
 19 21  1  0  0  0  0
 21 22  1  0  0  0  0
 22 23  2  0  0  0  0
 23 24  1  0  0  0  0
 24 25  1  0  0  0  0
 25 26  1  0  0  0  0
 25 44  1  0  0  0  0
 26 45  1  0  0  0  0
 27 28  1  0  0  0  0
 27 46  1  0  0  0  0
 27 47  1  0  0  0  0
 28 48  1  0  0  0  0
 29 49  1  0  0  0  0
M  END
$$$$
