23
 OpenBabel02232411163D
Structure written by MMmdl.
 43 46  0  0  0  0  0  0  0  0999 V2000
    3.7720  -49.7470    6.0560 O   0  0  0  0  0  0  0  0  0  0  0  0
    2.9670  -48.9030    6.4940 C   0  0  0  0  0  0  0  0  0  0  0  0
    3.2390  -47.8340    7.0560 O   0  5  0  0  0  0  0  0  0  0  0  0
    1.4950  -49.3140    6.3640 C   0  0  0  0  0  0  0  0  0  0  0  0
    1.1690  -50.9740    6.8490 S   0  0  0  0  0  0  0  0  0  0  0  0
   -0.5410  -50.8280    6.5400 C   0  0  0  0  0  0  0  0  0  0  0  0
   -1.5210  -51.7980    6.7290 C   0  0  0  0  0  0  0  0  0  0  0  0
   -2.8380  -51.4700    6.4060 C   0  0  0  0  0  0  0  0  0  0  0  0
   -3.1510  -50.1950    5.9010 C   0  0  0  0  0  0  0  0  0  0  0  0
   -2.1630  -49.2270    5.7180 C   0  0  0  0  0  0  0  0  0  0  0  0
   -0.8310  -49.5310    6.0430 C   0  0  0  0  0  0  0  0  0  0  0  0
    0.3660  -48.6790    5.9630 C   0  0  0  0  0  0  0  0  0  0  0  0
    0.2710  -47.2650    5.4790 C   0  0  0  0  0  0  0  0  0  0  0  0
    0.2660  -46.2410    6.6260 C   0  0  0  0  0  0  0  0  0  0  0  0
   -0.8930  -46.3940    7.6030 C   0  0  0  0  0  0  0  0  0  0  0  0
   -2.0740  -45.8430    6.9070 O   0  0  0  0  0  0  0  0  0  0  0  0
   -3.2570  -45.8440    7.5850 C   0  0  0  0  0  0  0  0  0  0  0  0
   -5.7840  -45.6090    8.7970 C   0  0  0  0  0  0  0  0  0  0  0  0
   -4.7960  -46.3690    9.3730 C   0  0  0  0  0  0  0  0  0  0  0  0
   -3.5130  -46.4910    8.7810 C   0  0  0  0  0  0  0  0  0  0  0  0
   -1.2900  -52.7900    7.1220 H   0  0  0  0  0  0  0  0  0  0  0  0
   -3.6330  -52.2020    6.5460 H   0  0  0  0  0  0  0  0  0  0  0  0
   -4.1890  -49.9660    5.6520 H   0  0  0  0  0  0  0  0  0  0  0  0
   -2.4490  -48.2470    5.3330 H   0  0  0  0  0  0  0  0  0  0  0  0
   -0.6690  -47.1360    4.8840 H   0  0  0  0  0  0  0  0  0  0  0  0
    1.1380  -47.0300    4.8140 H   0  0  0  0  0  0  0  0  0  0  0  0
    0.2230  -45.2140    6.1920 H   0  0  0  0  0  0  0  0  0  0  0  0
    1.2150  -46.3540    7.2140 H   0  0  0  0  0  0  0  0  0  0  0  0
   -0.7530  -45.7550    8.5020 H   0  0  0  0  0  0  0  0  0  0  0  0
   -1.1210  -47.4540    7.8340 H   0  0  0  0  0  0  0  0  0  0  0  0
   -2.7820  -47.1070    9.2920 H   0  0  0  0  0  0  0  0  0  0  0  0
   -5.5530  -44.9610    7.5440 C   0  0  0  0  0  0  0  0  0  0  0  0
   -4.2850  -45.0780    6.9160 C   0  0  0  0  0  0  0  0  0  0  0  0
   -4.0720  -44.4790    5.6410 C   0  0  0  0  0  0  0  0  0  0  0  0
   -5.0760  -43.7700    5.0260 C   0  0  0  0  0  0  0  0  0  0  0  0
   -6.3470  -43.6500    5.6520 C   0  0  0  0  0  0  0  0  0  0  0  0
   -6.5820  -44.2270    6.8760 C   0  0  0  0  0  0  0  0  0  0  0  0
   -3.1090  -44.6180    5.1490 H   0  0  0  0  0  0  0  0  0  0  0  0
   -4.9160  -43.3030    4.0570 H   0  0  0  0  0  0  0  0  0  0  0  0
   -7.1310  -43.0980    5.1400 H   0  0  0  0  0  0  0  0  0  0  0  0
   -7.5600  -44.1480    7.3480 H   0  0  0  0  0  0  0  0  0  0  0  0
   -4.9920  -46.9020   10.3070 H   0  0  0  0  0  0  0  0  0  0  0  0
   -6.7610  -45.5090    9.2680 H   0  0  0  0  0  0  0  0  0  0  0  0
  1  2  2  0  0  0  0
  2  3  1  0  0  0  0
  2  4  1  0  0  0  0
  4  5  1  0  0  0  0
  4 12  2  0  0  0  0
  5  6  1  0  0  0  0
  6  7  2  0  0  0  0
  6 11  1  0  0  0  0
  7  8  1  0  0  0  0
  7 21  1  0  0  0  0
  8  9  2  0  0  0  0
  8 22  1  0  0  0  0
  9 10  1  0  0  0  0
  9 23  1  0  0  0  0
 10 11  2  0  0  0  0
 10 24  1  0  0  0  0
 11 12  1  0  0  0  0
 12 13  1  0  0  0  0
 13 25  1  0  0  0  0
 13 26  1  0  0  0  0
 13 14  1  0  0  0  0
 14 15  1  0  0  0  0
 14 27  1  0  0  0  0
 14 28  1  0  0  0  0
 15 16  1  0  0  0  0
 15 29  1  0  0  0  0
 15 30  1  0  0  0  0
 16 17  1  0  0  0  0
 17 20  2  0  0  0  0
 17 33  1  0  0  0  0
 18 19  2  0  0  0  0
 18 32  1  0  0  0  0
 18 43  1  0  0  0  0
 19 20  1  0  0  0  0
 19 42  1  0  0  0  0
 20 31  1  0  0  0  0
 32 33  2  0  0  0  0
 32 37  1  0  0  0  0
 33 34  1  0  0  0  0
 34 35  2  0  0  0  0
 34 38  1  0  0  0  0
 35 36  1  0  0  0  0
 35 39  1  0  0  0  0
 36 37  2  0  0  0  0
 36 40  1  0  0  0  0
 37 41  1  0  0  0  0
M  CHG  1   3  -1
M  END
$$$$
