p38a_2aa
 OpenBabel02232411163D
Structure written by MMmdl.
 43 45  0  0  0  0  0  0  0  0999 V2000
   38.3200   36.5650   17.1320 C   0  0  0  0  0  0  0  0  0  0  0  0
   34.4780   35.0630   21.1370 C   0  0  0  0  0  0  0  0  0  0  0  0
   37.5410   36.0940   18.1860 C   0  0  0  0  0  0  0  0  0  0  0  0
   33.7800   39.1360   23.6580 C   0  0  0  0  0  0  0  0  0  0  0  0
   32.6390   39.0410   25.8930 C   0  0  0  0  0  0  0  0  0  0  0  0
   34.6240   37.9390   21.3230 C   0  0  0  0  0  0  0  0  0  0  0  0
   35.0930   37.2830   20.1330 C   0  0  0  0  0  0  0  0  0  0  0  0
   37.6720   36.7180   15.8990 C   0  0  0  0  0  0  0  0  0  0  0  0
   36.3280   36.4000   15.6890 C   0  0  0  0  0  0  0  0  0  0  0  0
   35.5710   35.9140   16.7600 C   0  0  0  0  0  0  0  0  0  0  0  0
   34.1220   37.1650   22.4110 C   0  0  0  0  0  0  0  0  0  0  0  0
   34.6380   39.3490   21.4880 C   0  0  0  0  0  0  0  0  0  0  0  0
   35.0420   35.9330   20.0700 C   0  0  0  0  0  0  0  0  0  0  0  0
   36.1850   35.7520   18.0050 C   0  0  0  0  0  0  0  0  0  0  0  0
   33.5510   34.9780   23.4790 C   0  0  0  0  0  0  0  0  0  0  0  0
   38.0710   35.9670   19.3950 F   0  0  0  0  0  0  0  0  0  0  0  0
   35.4740   35.1130   19.0310 O   0  0  0  0  0  0  0  0  0  0  0  0
   34.2420   39.9590   22.6180 N   0  0  0  0  0  0  0  0  0  0  0  0
   34.3620   33.8600   21.0780 O   0  0  0  0  0  0  0  0  0  0  0  0
   34.0530   35.7680   22.3200 N   0  0  0  0  0  0  0  0  0  0  0  0
   33.6800   37.7620   23.5680 N   0  0  0  0  0  0  0  0  0  0  0  0
   33.4370   39.7450   24.8490 N   0  0  0  0  0  0  0  0  0  0  0  0
   39.3690   36.8390   17.2700 H   0  0  0  0  0  0  0  0  0  0  0  0
   32.7420   39.8710   27.2020 C   0  0  0  0  0  0  0  0  0  0  0  0
   35.4830   37.9040   19.3230 H   0  0  0  0  0  0  0  0  0  0  0  0
   35.8570   36.5420   14.7140 H   0  0  0  0  0  0  0  0  0  0  0  0
   34.5100   35.6810   16.6180 H   0  0  0  0  0  0  0  0  0  0  0  0
   34.9730   39.9950   20.6610 H   0  0  0  0  0  0  0  0  0  0  0  0
   33.9980   35.3640   24.4360 H   0  0  0  0  0  0  0  0  0  0  0  0
   32.4340   35.0600   23.5420 H   0  0  0  0  0  0  0  0  0  0  0  0
   33.8360   33.8990   23.3610 H   0  0  0  0  0  0  0  0  0  0  0  0
   33.4350   40.7830   24.9040 H   0  0  0  0  0  0  0  0  0  0  0  0
   38.3620   37.2330   14.8850 F   0  0  0  0  0  0  0  0  0  0  0  0
   31.1560   38.8780   25.4760 C   0  0  0  0  0  0  0  0  0  0  0  0
   30.9120   37.6390   24.8110 O   0  0  0  0  0  0  0  0  0  0  0  0
   31.6560   37.4290   24.2000 H   0  0  0  0  0  0  0  0  0  0  0  0
   30.5100   38.8090   26.3870 H   0  0  0  0  0  0  0  0  0  0  0  0
   30.8260   39.7100   24.8140 H   0  0  0  0  0  0  0  0  0  0  0  0
   31.9180   39.2690   28.2060 O   0  0  0  0  0  0  0  0  0  0  0  0
   33.7990   39.9350   27.5500 H   0  0  0  0  0  0  0  0  0  0  0  0
   32.2990   40.8870   27.0830 H   0  0  0  0  0  0  0  0  0  0  0  0
   32.3480   38.4350   28.5320 H   0  0  0  0  0  0  0  0  0  0  0  0
   33.0950   38.0250   26.0730 H   0  0  0  0  0  0  0  0  0  0  0  0
  1  3  2  0  0  0  0
  1  8  1  0  0  0  0
  1 23  1  0  0  0  0
  2 13  1  0  0  0  0
  2 19  2  0  0  0  0
  2 20  1  0  0  0  0
  3 14  1  0  0  0  0
  3 16  1  0  0  0  0
  4 18  2  0  0  0  0
  4 21  1  0  0  0  0
  4 22  1  0  0  0  0
  5 22  1  0  0  0  0
  5 24  1  0  0  0  0
  5 34  1  0  0  0  0
  5 43  1  0  0  0  0
  6  7  1  0  0  0  0
  6 11  1  0  0  0  0
  6 12  2  0  0  0  0
  7 13  2  0  0  0  0
  7 25  1  0  0  0  0
  8  9  2  0  0  0  0
  8 33  1  0  0  0  0
  9 10  1  0  0  0  0
  9 26  1  0  0  0  0
 10 14  2  0  0  0  0
 10 27  1  0  0  0  0
 11 20  1  0  0  0  0
 11 21  2  0  0  0  0
 12 18  1  0  0  0  0
 12 28  1  0  0  0  0
 13 17  1  0  0  0  0
 14 17  1  0  0  0  0
 15 20  1  0  0  0  0
 15 29  1  0  0  0  0
 15 30  1  0  0  0  0
 15 31  1  0  0  0  0
 22 32  1  0  0  0  0
 24 39  1  0  0  0  0
 24 40  1  0  0  0  0
 24 41  1  0  0  0  0
 34 35  1  0  0  0  0
 34 37  1  0  0  0  0
 34 38  1  0  0  0  0
 35 36  1  0  0  0  0
 39 42  1  0  0  0  0
M  END
$$$$
