CAT-17e
                    3D
 Schrodinger Suite 2022-3.
 46 49  0  0  1  0  0  0  0  0999 V2000
   15.0630    4.8400    1.6810 C   0  0  0  0  0  0  0  0  0  0  0  0
   15.5830    3.6470    1.0340 O   0  0  0  0  0  0  0  0  0  0  0  0
   15.1570    3.3530   -0.2330 C   0  0  0  0  0  0  0  0  0  0  0  0
   14.4500    4.2010   -1.1190 C   0  0  0  0  0  0  0  0  0  0  0  0
   14.1010    3.7890   -2.3600 N   0  0  0  0  0  0  0  0  0  0  0  0
   14.4280    2.5370   -2.7610 C   0  0  0  0  0  0  0  0  0  0  0  0
   15.1220    1.6330   -1.9240 C   0  0  0  0  0  0  0  0  0  0  0  0
   15.4200    0.2490   -2.3440 C   0  0  0  0  0  0  0  0  0  0  0  0
   16.1230   -0.0330   -3.5280 C   0  0  0  0  0  0  0  0  0  0  0  0
   16.4380   -1.3550   -3.8460 C   0  0  0  0  0  0  0  0  0  0  0  0
   16.0470   -2.4100   -3.0110 C   0  0  0  0  0  0  0  0  0  0  0  0
   15.3120   -2.1370   -1.8530 C   0  0  0  0  0  0  0  0  0  0  0  0
   14.8050   -3.2350   -0.9350 C   0  0  1  0  0  0  0  0  0  0  0  0
   15.0550   -4.6580   -1.3990 C   0  0  0  0  0  0  0  0  0  0  0  0
   16.2920   -5.4330   -0.9670 C   0  0  0  0  0  0  0  0  0  0  0  0
   14.9310   -5.8380   -0.4430 C   0  0  0  0  0  0  0  0  0  0  0  0
   15.3000   -2.9510    0.4630 N   0  3  0  0  0  0  0  0  0  0  0  0
   14.2540   -2.7840    1.3560 C   0  0  0  0  0  0  0  0  0  0  0  0
   14.4060   -2.6600    2.7060 N   0  0  0  0  0  0  0  0  0  0  0  0
   13.0340   -2.8480    0.6730 N   0  0  0  0  0  0  0  0  0  0  0  0
   11.7660   -2.4840    1.3380 C   0  0  0  0  0  0  0  0  0  0  0  0
   13.2520   -3.0780   -0.7640 C   0  0  0  0  0  0  0  0  0  0  0  0
   12.3550   -3.1220   -1.5430 O   0  0  0  0  0  0  0  0  0  0  0  0
   15.0080   -0.8060   -1.5200 C   0  0  0  0  0  0  0  0  0  0  0  0
   15.4980    2.0540   -0.6460 C   0  0  0  0  0  0  0  0  0  0  0  0
   15.4280    4.6720    2.7260 H   0  0  0  0  0  0  0  0  0  0  0  0
   15.5120    5.7390    1.2130 H   0  0  0  0  0  0  0  0  0  0  0  0
   13.9590    4.8470    1.6260 H   0  0  0  0  0  0  0  0  0  0  0  0
   14.1470    5.2190   -0.8390 H   0  0  0  0  0  0  0  0  0  0  0  0
   14.1170    2.2360   -3.7730 H   0  0  0  0  0  0  0  0  0  0  0  0
   16.4360    0.7760   -4.1960 H   0  0  0  0  0  0  0  0  0  0  0  0
   17.0080   -1.5720   -4.7550 H   0  0  0  0  0  0  0  0  0  0  0  0
   16.3230   -3.4340   -3.2690 H   0  0  0  0  0  0  0  0  0  0  0  0
   14.6920   -4.8070   -2.4340 H   0  0  0  0  0  0  0  0  0  0  0  0
   16.7880   -6.0690   -1.7140 H   0  0  0  0  0  0  0  0  0  0  0  0
   17.0070   -4.9500   -0.2880 H   0  0  0  0  0  0  0  0  0  0  0  0
   14.6790   -5.6500    0.6080 H   0  0  0  0  0  0  0  0  0  0  0  0
   14.4700   -6.7640   -0.8210 H   0  0  0  0  0  0  0  0  0  0  0  0
   16.2720   -3.1640    0.8050 H   0  0  0  0  0  0  0  0  0  0  0  0
   13.6850   -2.1740    3.2950 H   0  0  0  0  0  0  0  0  0  0  0  0
   10.9040   -2.6950    0.6510 H   0  0  0  0  0  0  0  0  0  0  0  0
   11.6400   -3.0890    2.2770 H   0  0  0  0  0  0  0  0  0  0  0  0
   11.7930   -1.3940    1.5990 H   0  0  0  0  0  0  0  0  0  0  0  0
   14.4550   -0.5930   -0.6050 H   0  0  0  0  0  0  0  0  0  0  0  0
   16.0260    1.3820    0.0310 H   0  0  0  0  0  0  0  0  0  0  0  0
   15.3800   -2.5600    3.0980 H   0  0  0  0  0  0  0  0  0  0  0  0
  1  2  1  0  0  0  0
  1 26  1  0  0  0  0
  1 27  1  0  0  0  0
  1 28  1  0  0  0  0
  2  3  1  0  0  0  0
  3  4  2  0  0  0  0
  3 25  1  0  0  0  0
  4  5  1  0  0  0  0
  4 29  1  0  0  0  0
  5  6  2  0  0  0  0
  6  7  1  0  0  0  0
  6 30  1  0  0  0  0
  7  8  1  0  0  0  0
  7 25  2  0  0  0  0
  8  9  2  0  0  0  0
  8 24  1  0  0  0  0
  9 10  1  0  0  0  0
  9 31  1  0  0  0  0
 10 11  2  0  0  0  0
 10 32  1  0  0  0  0
 11 12  1  0  0  0  0
 11 33  1  0  0  0  0
 12 13  1  0  0  0  0
 12 24  2  0  0  0  0
 13 14  1  0  0  0  0
 13 17  1  0  0  0  0
 13 22  1  0  0  0  0
 14 15  1  0  0  0  0
 14 16  1  0  0  0  0
 14 34  1  0  0  0  0
 15 16  1  0  0  0  0
 15 35  1  0  0  0  0
 15 36  1  0  0  0  0
 16 37  1  0  0  0  0
 16 38  1  0  0  0  0
 17 18  2  0  0  0  0
 17 39  1  0  0  0  0
 18 19  1  0  0  0  0
 18 20  1  0  0  0  0
 19 40  1  0  0  0  0
 19 46  1  0  0  0  0
 20 21  1  0  0  0  0
 20 22  1  0  0  0  0
 21 41  1  0  0  0  0
 21 42  1  0  0  0  0
 21 43  1  0  0  0  0
 22 23  2  0  0  0  0
 24 44  1  0  0  0  0
 25 45  1  0  0  0  0
M  CHG  1  17   1
M  END
$$$$
