p38a_2gg
 OpenBabel02232411163D
Structure written by MMmdl.
 48 51  0  0  0  0  0  0  0  0999 V2000
   36.3540   35.9880   15.8700 C   0  0  0  0  0  0  0  0  0  0  0  0
   34.5230   35.0560   21.4430 C   0  0  0  0  0  0  0  0  0  0  0  0
   35.6530   35.5380   16.9840 C   0  0  0  0  0  0  0  0  0  0  0  0
   34.2240   39.1780   23.9550 C   0  0  0  0  0  0  0  0  0  0  0  0
   34.7480   37.9200   21.5570 C   0  0  0  0  0  0  0  0  0  0  0  0
   35.1410   37.2310   20.3570 C   0  0  0  0  0  0  0  0  0  0  0  0
   37.6450   36.4800   16.1010 C   0  0  0  0  0  0  0  0  0  0  0  0
   38.2500   36.4950   17.3610 C   0  0  0  0  0  0  0  0  0  0  0  0
   37.5120   36.0700   18.4710 C   0  0  0  0  0  0  0  0  0  0  0  0
   34.3820   37.1820   22.7220 C   0  0  0  0  0  0  0  0  0  0  0  0
   34.7220   39.3350   21.6650 C   0  0  0  0  0  0  0  0  0  0  0  0
   35.0700   35.8810   20.3310 C   0  0  0  0  0  0  0  0  0  0  0  0
   36.2110   35.5950   18.2780 C   0  0  0  0  0  0  0  0  0  0  0  0
   33.9140   35.0350   23.8970 C   0  0  0  0  0  0  0  0  0  0  0  0
   34.4360   35.0270   16.8530 F   0  0  0  0  0  0  0  0  0  0  0  0
   35.4310   35.0260   19.2930 O   0  0  0  0  0  0  0  0  0  0  0  0
   34.4600   39.9740   22.8150 N   0  0  0  0  0  0  0  0  0  0  0  0
   34.2810   33.8710   21.3860 O   0  0  0  0  0  0  0  0  0  0  0  0
   34.2700   35.7850   22.6600 N   0  0  0  0  0  0  0  0  0  0  0  0
   34.1180   37.8060   23.9190 N   0  0  0  0  0  0  0  0  0  0  0  0
   34.1710   39.8620   25.1540 N   0  0  0  0  0  0  0  0  0  0  0  0
   35.9130   35.9840   14.8700 H   0  0  0  0  0  0  0  0  0  0  0  0
   35.5030   37.8300   19.5170 H   0  0  0  0  0  0  0  0  0  0  0  0
   39.2720   36.8630   17.4850 H   0  0  0  0  0  0  0  0  0  0  0  0
   37.9470   36.1360   19.4700 H   0  0  0  0  0  0  0  0  0  0  0  0
   34.9160   39.9590   20.7770 H   0  0  0  0  0  0  0  0  0  0  0  0
   34.7190   35.1770   24.6690 H   0  0  0  0  0  0  0  0  0  0  0  0
   32.9480   35.4280   24.3170 H   0  0  0  0  0  0  0  0  0  0  0  0
   33.8040   33.9430   23.6700 H   0  0  0  0  0  0  0  0  0  0  0  0
   34.0460   40.8950   25.1180 H   0  0  0  0  0  0  0  0  0  0  0  0
   38.3130   36.9900   15.0690 F   0  0  0  0  0  0  0  0  0  0  0  0
   34.4340   37.7090   28.3310 C   0  0  0  0  0  0  0  0  0  0  0  0
   34.6140   38.0530   26.8520 C   0  0  0  0  0  0  0  0  0  0  0  0
   33.7920   39.3050   26.4840 C   0  0  0  0  0  0  0  0  0  0  0  0
   32.2690   39.0440   26.5900 C   0  0  0  0  0  0  0  0  0  0  0  0
   31.8720   38.8030   28.0470 C   0  0  0  0  0  0  0  0  0  0  0  0
   34.8620   38.5460   28.9490 H   0  0  0  0  0  0  0  0  0  0  0  0
   35.0470   36.7990   28.5640 H   0  0  0  0  0  0  0  0  0  0  0  0
   34.3150   37.1860   26.2110 H   0  0  0  0  0  0  0  0  0  0  0  0
   35.6950   38.2700   26.6570 H   0  0  0  0  0  0  0  0  0  0  0  0
   34.0630   40.1350   27.2070 H   0  0  0  0  0  0  0  0  0  0  0  0
   31.7240   39.9470   26.2110 H   0  0  0  0  0  0  0  0  0  0  0  0
   31.9840   38.1770   25.9460 H   0  0  0  0  0  0  0  0  0  0  0  0
   32.0870   39.7380   28.6350 H   0  0  0  0  0  0  0  0  0  0  0  0
   30.7660   38.6350   28.1000 H   0  0  0  0  0  0  0  0  0  0  0  0
   32.7500   37.4480   28.7530 S   0  0  0  0  0  0  0  0  0  0  0  0
   32.2570   36.1600   28.2160 O   0  0  0  0  0  0  0  0  0  0  0  0
   32.6010   37.4640   30.2350 O   0  0  0  0  0  0  0  0  0  0  0  0
  1  3  2  0  0  0  0
  1  7  1  0  0  0  0
  1 22  1  0  0  0  0
  2 12  1  0  0  0  0
  2 18  2  0  0  0  0
  2 19  1  0  0  0  0
  3 13  1  0  0  0  0
  3 15  1  0  0  0  0
  4 17  2  0  0  0  0
  4 20  1  0  0  0  0
  4 21  1  0  0  0  0
  5  6  1  0  0  0  0
  5 10  1  0  0  0  0
  5 11  2  0  0  0  0
  6 12  2  0  0  0  0
  6 23  1  0  0  0  0
  7  8  2  0  0  0  0
  7 31  1  0  0  0  0
  8  9  1  0  0  0  0
  8 24  1  0  0  0  0
  9 13  2  0  0  0  0
  9 25  1  0  0  0  0
 10 19  1  0  0  0  0
 10 20  2  0  0  0  0
 11 17  1  0  0  0  0
 11 26  1  0  0  0  0
 12 16  1  0  0  0  0
 13 16  1  0  0  0  0
 14 19  1  0  0  0  0
 14 27  1  0  0  0  0
 14 28  1  0  0  0  0
 14 29  1  0  0  0  0
 21 30  1  0  0  0  0
 21 34  1  0  0  0  0
 32 33  1  0  0  0  0
 32 37  1  0  0  0  0
 32 38  1  0  0  0  0
 32 46  1  0  0  0  0
 33 34  1  0  0  0  0
 33 39  1  0  0  0  0
 33 40  1  0  0  0  0
 34 35  1  0  0  0  0
 34 41  1  0  0  0  0
 35 36  1  0  0  0  0
 35 42  1  0  0  0  0
 35 43  1  0  0  0  0
 36 44  1  0  0  0  0
 36 45  1  0  0  0  0
 36 46  1  0  0  0  0
 46 47  2  0  0  0  0
 46 48  2  0  0  0  0
M  END
$$$$
