18659-1
 OpenBabel02232411163D
Structure written by MMmdl.
 50 51  0  0  0  0  0  0  0  0999 V2000
   25.2230   12.9470   28.6840 C   0  0  0  0  0  0  0  0  0  0  0  0
   24.1390   13.2630   29.5850 O   0  0  0  0  0  0  0  0  0  0  0  0
   24.1340   12.4720   30.7860 C   0  0  0  0  0  0  0  0  0  0  0  0
   23.5140   11.0870   30.5590 C   0  0  0  0  0  0  0  0  0  0  0  0
   22.2250   11.1930   31.2750 O   0  0  0  0  0  0  0  0  0  0  0  0
   21.5700   10.0530   31.5990 C   0  0  0  0  0  0  0  0  0  0  0  0
   22.0230    8.8700   31.1280 N   0  0  0  0  0  0  0  0  0  0  0  0
   21.2870    7.7330   31.4420 C   0  0  0  0  0  0  0  0  0  0  0  0
   20.1410    7.7770   32.2310 C   0  0  0  0  0  0  0  0  0  0  0  0
   19.6760    9.0250   32.7220 C   0  0  0  0  0  0  0  0  0  0  0  0
   18.5370    9.0710   33.4860 N   0  0  0  0  0  0  0  0  0  0  0  0
   20.3980   10.2190   32.3950 C   0  0  0  0  0  0  0  0  0  0  0  0
   20.0050   11.5200   32.7760 C   0  0  0  0  0  0  0  0  0  0  0  0
   19.7290   12.6150   33.0410 N   0  0  0  0  0  0  0  0  0  0  0  0
   21.8380    6.5730   30.8600 N   0  0  0  0  0  0  0  0  0  0  0  0
   21.2740    5.2740   30.8470 C   0  0  0  0  0  0  0  0  0  0  0  0
   20.2130    5.0130   31.3720 O   0  0  0  0  0  0  0  0  0  0  0  0
   22.0970    4.2730   30.0480 C   0  0  0  0  0  0  0  0  0  0  0  0
   23.4380    4.0000   30.6650 C   0  0  0  0  0  0  0  0  0  0  0  0
   24.5520    4.8430   30.3790 C   0  0  0  0  0  0  0  0  0  0  0  0
   24.2420    5.8720   29.4940 O   0  0  0  0  0  0  0  0  0  0  0  0
   25.2230    6.9300   29.3330 C   0  0  0  0  0  0  0  0  0  0  0  0
   25.8070    4.6100   30.9300 C   0  0  0  0  0  0  0  0  0  0  0  0
   25.9900    3.5270   31.8040 C   0  0  0  0  0  0  0  0  0  0  0  0
   24.9060    2.6990   32.0890 C   0  0  0  0  0  0  0  0  0  0  0  0
   23.6310    2.9170   31.5110 C   0  0  0  0  0  0  0  0  0  0  0  0
   24.9180    1.6040   32.9290 O   0  0  0  0  0  0  0  0  0  0  0  0
   26.1650    1.2850   33.5970 C   0  0  0  0  0  0  0  0  0  0  0  0
   26.1950   13.2280   29.1450 H   0  0  0  0  0  0  0  0  0  0  0  0
   25.2090   11.8700   28.4090 H   0  0  0  0  0  0  0  0  0  0  0  0
   24.9990   13.5870   27.8010 H   0  0  0  0  0  0  0  0  0  0  0  0
   25.1630   12.3740   31.1960 H   0  0  0  0  0  0  0  0  0  0  0  0
   23.4830   13.0870   31.4590 H   0  0  0  0  0  0  0  0  0  0  0  0
   24.1260   10.2740   31.0110 H   0  0  0  0  0  0  0  0  0  0  0  0
   23.2790   10.8830   29.4910 H   0  0  0  0  0  0  0  0  0  0  0  0
   19.5830    6.8680   32.4660 H   0  0  0  0  0  0  0  0  0  0  0  0
   18.0380    8.2040   33.7600 H   0  0  0  0  0  0  0  0  0  0  0  0
   18.1560    9.9580   33.8170 H   0  0  0  0  0  0  0  0  0  0  0  0
   22.7530    6.7160   30.3620 H   0  0  0  0  0  0  0  0  0  0  0  0
   21.5170    3.3180   29.9660 H   0  0  0  0  0  0  0  0  0  0  0  0
   22.2490    4.6890   29.0140 H   0  0  0  0  0  0  0  0  0  0  0  0
   26.1120    6.5330   28.7970 H   0  0  0  0  0  0  0  0  0  0  0  0
   25.4940    7.3650   30.3190 H   0  0  0  0  0  0  0  0  0  0  0  0
   24.6640    7.6630   28.7080 H   0  0  0  0  0  0  0  0  0  0  0  0
   26.6650    5.2460   30.7000 H   0  0  0  0  0  0  0  0  0  0  0  0
   26.9820    3.3650   32.2300 H   0  0  0  0  0  0  0  0  0  0  0  0
   22.8220    2.2190   31.7410 H   0  0  0  0  0  0  0  0  0  0  0  0
   25.8810    0.3880   34.1950 H   0  0  0  0  0  0  0  0  0  0  0  0
   26.4760    2.1260   34.2540 H   0  0  0  0  0  0  0  0  0  0  0  0
   26.9500    1.0350   32.8490 H   0  0  0  0  0  0  0  0  0  0  0  0
  1  2  1  0  0  0  0
  1 29  1  0  0  0  0
  1 30  1  0  0  0  0
  1 31  1  0  0  0  0
  2  3  1  0  0  0  0
  3  4  1  0  0  0  0
  3 32  1  0  0  0  0
  3 33  1  0  0  0  0
  4  5  1  0  0  0  0
  4 34  1  0  0  0  0
  4 35  1  0  0  0  0
  5  6  1  0  0  0  0
  6 12  2  0  0  0  0
  6  7  1  0  0  0  0
  7  8  2  0  0  0  0
  8  9  1  0  0  0  0
  8 15  1  0  0  0  0
  9 10  2  0  0  0  0
  9 36  1  0  0  0  0
 10 11  1  0  0  0  0
 10 12  1  0  0  0  0
 11 37  1  0  0  0  0
 11 38  1  0  0  0  0
 12 13  1  0  0  0  0
 13 14  3  0  0  0  0
 15 16  1  0  0  0  0
 15 39  1  0  0  0  0
 16 17  2  0  0  0  0
 16 18  1  0  0  0  0
 18 19  1  0  0  0  0
 18 40  1  0  0  0  0
 18 41  1  0  0  0  0
 19 26  2  0  0  0  0
 19 20  1  0  0  0  0
 20 21  1  0  0  0  0
 20 23  2  0  0  0  0
 21 22  1  0  0  0  0
 22 42  1  0  0  0  0
 22 43  1  0  0  0  0
 22 44  1  0  0  0  0
 23 24  1  0  0  0  0
 23 45  1  0  0  0  0
 24 25  2  0  0  0  0
 24 46  1  0  0  0  0
 25 26  1  0  0  0  0
 25 27  1  0  0  0  0
 26 47  1  0  0  0  0
 27 28  1  0  0  0  0
 28 48  1  0  0  0  0
 28 49  1  0  0  0  0
 28 50  1  0  0  0  0
M  END
$$$$
