47
 OpenBabel02232411163D
Structure written by MMmdl.
 43 46  0  0  0  0  0  0  0  0999 V2000
    4.1440  -50.3750    6.5770 O   0  0  0  0  0  0  0  0  0  0  0  0
    3.3510  -49.4640    6.8860 C   0  0  0  0  0  0  0  0  0  0  0  0
    3.6310  -48.3730    7.3940 O   0  5  0  0  0  0  0  0  0  0  0  0
    1.8690  -49.7730    6.5940 C   0  0  0  0  0  0  0  0  0  0  0  0
    0.0010  -51.0950    6.5660 C   0  0  0  0  0  0  0  0  0  0  0  0
   -0.9630  -52.0960    6.7750 C   0  0  0  0  0  0  0  0  0  0  0  0
   -2.2430  -51.8620    6.2940 C   0  0  0  0  0  0  0  0  0  0  0  0
   -2.5510  -50.6780    5.5860 C   0  0  0  0  0  0  0  0  0  0  0  0
   -1.5930  -49.7040    5.3440 C   0  0  0  0  0  0  0  0  0  0  0  0
   -0.3020  -49.8640    5.8760 C   0  0  0  0  0  0  0  0  0  0  0  0
    0.8820  -49.0330    5.9480 C   0  0  0  0  0  0  0  0  0  0  0  0
    0.9520  -47.6190    5.4860 C   0  0  0  0  0  0  0  0  0  0  0  0
    0.3300  -46.6270    6.4970 C   0  0  0  0  0  0  0  0  0  0  0  0
   -1.1510  -46.9350    6.6820 C   0  0  0  0  0  0  0  0  0  0  0  0
   -1.6500  -46.0280    7.7380 O   0  0  0  0  0  0  0  0  0  0  0  0
   -2.9940  -45.7580    7.6430 C   0  0  0  0  0  0  0  0  0  0  0  0
   -5.1190  -45.8450    8.8090 C   0  0  0  0  0  0  0  0  0  0  0  0
   -3.7850  -46.1420    8.7790 C   0  0  0  0  0  0  0  0  0  0  0  0
   -0.7240  -53.0190    7.3040 H   0  0  0  0  0  0  0  0  0  0  0  0
   -3.0320  -52.5970    6.4600 H   0  0  0  0  0  0  0  0  0  0  0  0
   -3.5700  -50.5330    5.2240 H   0  0  0  0  0  0  0  0  0  0  0  0
   -1.8540  -48.8320    4.7450 H   0  0  0  0  0  0  0  0  0  0  0  0
    0.3940  -47.5170    4.5230 H   0  0  0  0  0  0  0  0  0  0  0  0
    2.0130  -47.3120    5.3120 H   0  0  0  0  0  0  0  0  0  0  0  0
    0.8480  -46.6990    7.4810 H   0  0  0  0  0  0  0  0  0  0  0  0
    0.4450  -45.5850    6.1180 H   0  0  0  0  0  0  0  0  0  0  0  0
   -1.3290  -47.9410    7.1280 H   0  0  0  0  0  0  0  0  0  0  0  0
   -1.7310  -46.7720    5.7520 H   0  0  0  0  0  0  0  0  0  0  0  0
   -3.3000  -46.6710    9.6040 H   0  0  0  0  0  0  0  0  0  0  0  0
   -3.5500  -45.1190    6.5550 C   0  0  0  0  0  0  0  0  0  0  0  0
   -5.7490  -46.1270    9.6600 H   0  0  0  0  0  0  0  0  0  0  0  0
   -4.9380  -44.8100    6.5650 C   0  0  0  0  0  0  0  0  0  0  0  0
   -5.7330  -45.1860    7.6880 C   0  0  0  0  0  0  0  0  0  0  0  0
   -7.1090  -44.9990    7.7050 N   0  0  0  0  0  0  0  0  0  0  0  0
   -7.6850  -44.4770    6.6250 C   0  0  0  0  0  0  0  0  0  0  0  0
   -6.9520  -44.0470    5.4720 C   0  0  0  0  0  0  0  0  0  0  0  0
   -5.5900  -44.2000    5.4470 C   0  0  0  0  0  0  0  0  0  0  0  0
   -8.7790  -44.3930    6.6150 H   0  0  0  0  0  0  0  0  0  0  0  0
   -7.4970  -43.6190    4.6370 H   0  0  0  0  0  0  0  0  0  0  0  0
   -4.9980  -43.8850    4.5840 H   0  0  0  0  0  0  0  0  0  0  0  0
   -2.9740  -44.8510    5.6720 H   0  0  0  0  0  0  0  0  0  0  0  0
    1.3410  -51.0210    6.9760 N   0  0  0  0  0  0  0  0  0  0  0  0
    1.8210  -51.7790    7.4500 H   0  0  0  0  0  0  0  0  0  0  0  0
  1  2  2  0  0  0  0
  2  3  1  0  0  0  0
  2  4  1  0  0  0  0
  4 11  2  0  0  0  0
  4 42  1  0  0  0  0
  5  6  2  0  0  0  0
  5 10  1  0  0  0  0
  5 42  1  0  0  0  0
  6  7  1  0  0  0  0
  6 19  1  0  0  0  0
  7  8  2  0  0  0  0
  7 20  1  0  0  0  0
  8  9  1  0  0  0  0
  8 21  1  0  0  0  0
  9 10  2  0  0  0  0
  9 22  1  0  0  0  0
 10 11  1  0  0  0  0
 11 12  1  0  0  0  0
 12 23  1  0  0  0  0
 12 24  1  0  0  0  0
 12 13  1  0  0  0  0
 13 14  1  0  0  0  0
 13 25  1  0  0  0  0
 13 26  1  0  0  0  0
 14 15  1  0  0  0  0
 14 27  1  0  0  0  0
 14 28  1  0  0  0  0
 15 16  1  0  0  0  0
 16 18  2  0  0  0  0
 16 30  1  0  0  0  0
 17 18  1  0  0  0  0
 17 31  1  0  0  0  0
 17 33  2  0  0  0  0
 18 29  1  0  0  0  0
 30 32  2  0  0  0  0
 30 41  1  0  0  0  0
 32 33  1  0  0  0  0
 32 37  1  0  0  0  0
 33 34  1  0  0  0  0
 34 35  2  0  0  0  0
 35 36  1  0  0  0  0
 35 38  1  0  0  0  0
 36 37  2  0  0  0  0
 36 39  1  0  0  0  0
 37 40  1  0  0  0  0
 42 43  1  0  0  0  0
M  CHG  1   3  -1
M  END
$$$$
