p38a_2aa
 OpenBabel02232411163D
Structure written by MMmdl.
 43 45  0  0  0  0  0  0  0  0999 V2000
   36.3570   36.0460   15.8050 C   0  0  0  0  0  0  0  0  0  0  0  0
   34.5680   34.9940   21.3420 C   0  0  0  0  0  0  0  0  0  0  0  0
   35.7000   35.5690   16.9360 C   0  0  0  0  0  0  0  0  0  0  0  0
   34.1440   39.0640   23.9220 C   0  0  0  0  0  0  0  0  0  0  0  0
   33.2010   39.1260   26.2940 C   0  0  0  0  0  0  0  0  0  0  0  0
   34.8450   37.8540   21.5460 C   0  0  0  0  0  0  0  0  0  0  0  0
   35.2780   37.1880   20.3460 C   0  0  0  0  0  0  0  0  0  0  0  0
   37.6520   36.5440   15.9990 C   0  0  0  0  0  0  0  0  0  0  0  0
   38.2980   36.5480   17.2380 C   0  0  0  0  0  0  0  0  0  0  0  0
   37.6040   36.0960   18.3660 C   0  0  0  0  0  0  0  0  0  0  0  0
   34.3880   37.0910   22.6610 C   0  0  0  0  0  0  0  0  0  0  0  0
   34.8560   39.2650   21.6960 C   0  0  0  0  0  0  0  0  0  0  0  0
   35.1790   35.8400   20.2790 C   0  0  0  0  0  0  0  0  0  0  0  0
   36.3040   35.6070   18.2090 C   0  0  0  0  0  0  0  0  0  0  0  0
   33.7810   34.9310   23.7440 C   0  0  0  0  0  0  0  0  0  0  0  0
   34.4830   35.0500   16.8400 F   0  0  0  0  0  0  0  0  0  0  0  0
   35.5740   35.0020   19.2410 O   0  0  0  0  0  0  0  0  0  0  0  0
   34.5130   39.8820   22.8390 N   0  0  0  0  0  0  0  0  0  0  0  0
   34.3260   33.8120   21.2450 O   0  0  0  0  0  0  0  0  0  0  0  0
   34.2580   35.6980   22.5600 N   0  0  0  0  0  0  0  0  0  0  0  0
   34.0360   37.6920   23.8460 N   0  0  0  0  0  0  0  0  0  0  0  0
   33.9040   39.7130   25.1200 N   0  0  0  0  0  0  0  0  0  0  0  0
   35.8800   36.0550   14.8220 H   0  0  0  0  0  0  0  0  0  0  0  0
   31.9150   38.3060   25.9790 C   0  0  0  0  0  0  0  0  0  0  0  0
   35.6860   37.7990   19.5390 H   0  0  0  0  0  0  0  0  0  0  0  0
   39.3200   36.9260   17.3370 H   0  0  0  0  0  0  0  0  0  0  0  0
   38.0740   36.1510   19.3510 H   0  0  0  0  0  0  0  0  0  0  0  0
   35.1410   39.9050   20.8460 H   0  0  0  0  0  0  0  0  0  0  0  0
   34.4070   35.1840   24.6430 H   0  0  0  0  0  0  0  0  0  0  0  0
   32.7140   35.1990   23.9720 H   0  0  0  0  0  0  0  0  0  0  0  0
   33.8520   33.8300   23.5500 H   0  0  0  0  0  0  0  0  0  0  0  0
   33.8550   40.7550   25.0980 H   0  0  0  0  0  0  0  0  0  0  0  0
   38.2800   37.0720   14.9510 F   0  0  0  0  0  0  0  0  0  0  0  0
   34.1760   38.2460   27.1210 C   0  0  0  0  0  0  0  0  0  0  0  0
   35.2300   39.0370   27.6860 O   0  0  0  0  0  0  0  0  0  0  0  0
   35.6990   39.5080   26.9550 H   0  0  0  0  0  0  0  0  0  0  0  0
   33.6530   37.8340   28.0180 H   0  0  0  0  0  0  0  0  0  0  0  0
   34.6190   37.4320   26.5020 H   0  0  0  0  0  0  0  0  0  0  0  0
   31.2260   38.7800   24.8160 O   0  0  0  0  0  0  0  0  0  0  0  0
   32.1590   37.2240   25.8440 H   0  0  0  0  0  0  0  0  0  0  0  0
   31.1710   38.4480   26.7990 H   0  0  0  0  0  0  0  0  0  0  0  0
   31.7840   38.5690   24.0400 H   0  0  0  0  0  0  0  0  0  0  0  0
   32.9070   40.0160   26.9280 H   0  0  0  0  0  0  0  0  0  0  0  0
  1  3  2  0  0  0  0
  1  8  1  0  0  0  0
  1 23  1  0  0  0  0
  2 13  1  0  0  0  0
  2 19  2  0  0  0  0
  2 20  1  0  0  0  0
  3 14  1  0  0  0  0
  3 16  1  0  0  0  0
  4 18  2  0  0  0  0
  4 21  1  0  0  0  0
  4 22  1  0  0  0  0
  5 22  1  0  0  0  0
  5 24  1  0  0  0  0
  5 34  1  0  0  0  0
  5 43  1  0  0  0  0
  6  7  1  0  0  0  0
  6 11  1  0  0  0  0
  6 12  2  0  0  0  0
  7 13  2  0  0  0  0
  7 25  1  0  0  0  0
  8  9  2  0  0  0  0
  8 33  1  0  0  0  0
  9 10  1  0  0  0  0
  9 26  1  0  0  0  0
 10 14  2  0  0  0  0
 10 27  1  0  0  0  0
 11 20  1  0  0  0  0
 11 21  2  0  0  0  0
 12 18  1  0  0  0  0
 12 28  1  0  0  0  0
 13 17  1  0  0  0  0
 14 17  1  0  0  0  0
 15 20  1  0  0  0  0
 15 29  1  0  0  0  0
 15 30  1  0  0  0  0
 15 31  1  0  0  0  0
 22 32  1  0  0  0  0
 24 39  1  0  0  0  0
 24 40  1  0  0  0  0
 24 41  1  0  0  0  0
 34 35  1  0  0  0  0
 34 37  1  0  0  0  0
 34 38  1  0  0  0  0
 35 36  1  0  0  0  0
 39 42  1  0  0  0  0
M  END
$$$$
