p38a_2o
 OpenBabel02232411163D
Structure written by MMmdl.
 55 58  0  0  0  0  0  0  0  0999 V2000
   36.2950   35.8450   16.0710 C   0  0  0  0  0  0  0  0  0  0  0  0
   34.5140   35.0720   21.7070 C   0  0  0  0  0  0  0  0  0  0  0  0
   35.5720   35.4560   17.1950 C   0  0  0  0  0  0  0  0  0  0  0  0
   34.1950   39.2260   24.1760 C   0  0  0  0  0  0  0  0  0  0  0  0
   34.7470   37.9400   21.7950 C   0  0  0  0  0  0  0  0  0  0  0  0
   35.0960   37.2430   20.5850 C   0  0  0  0  0  0  0  0  0  0  0  0
   37.5890   36.3300   16.2990 C   0  0  0  0  0  0  0  0  0  0  0  0
   38.1770   36.3950   17.5660 C   0  0  0  0  0  0  0  0  0  0  0  0
   37.4200   36.0220   18.6820 C   0  0  0  0  0  0  0  0  0  0  0  0
   34.3870   37.2100   22.9650 C   0  0  0  0  0  0  0  0  0  0  0  0
   34.7460   39.3570   21.8990 C   0  0  0  0  0  0  0  0  0  0  0  0
   35.0180   35.8930   20.5710 C   0  0  0  0  0  0  0  0  0  0  0  0
   36.1150   35.5580   18.4930 C   0  0  0  0  0  0  0  0  0  0  0  0
   34.3490   34.9570   17.0690 F   0  0  0  0  0  0  0  0  0  0  0  0
   35.3140   35.0320   19.5150 O   0  0  0  0  0  0  0  0  0  0  0  0
   34.4770   40.0120   23.0400 N   0  0  0  0  0  0  0  0  0  0  0  0
   34.3080   33.8800   21.6710 O   0  0  0  0  0  0  0  0  0  0  0  0
   34.2790   35.8070   22.9280 N   0  0  0  0  0  0  0  0  0  0  0  0
   34.1370   37.8440   24.1540 N   0  0  0  0  0  0  0  0  0  0  0  0
   33.9480   39.8710   25.3620 N   0  0  0  0  0  0  0  0  0  0  0  0
   35.8690   35.8040   15.0640 H   0  0  0  0  0  0  0  0  0  0  0  0
   35.4260   37.8360   19.7280 H   0  0  0  0  0  0  0  0  0  0  0  0
   39.2000   36.7610   17.6860 H   0  0  0  0  0  0  0  0  0  0  0  0
   37.8440   36.1180   19.6830 H   0  0  0  0  0  0  0  0  0  0  0  0
   34.9680   39.9710   21.0090 H   0  0  0  0  0  0  0  0  0  0  0  0
   33.9590   40.9060   25.4030 H   0  0  0  0  0  0  0  0  0  0  0  0
   38.2800   36.7830   15.2550 F   0  0  0  0  0  0  0  0  0  0  0  0
   33.6390   40.9950   28.4030 C   0  0  0  0  0  0  0  0  0  0  0  0
   32.8100   40.0090   27.5700 C   0  0  0  0  0  0  0  0  0  0  0  0
   33.6500   39.1230   26.6270 C   0  0  0  0  0  0  0  0  0  0  0  0
   34.9480   38.6370   27.3050 C   0  0  0  0  0  0  0  0  0  0  0  0
   35.6650   39.7580   28.0590 C   0  0  0  0  0  0  0  0  0  0  0  0
   34.7830   40.3750   29.0260 O   0  0  0  0  0  0  0  0  0  0  0  0
   33.0540   41.3630   29.2770 H   0  0  0  0  0  0  0  0  0  0  0  0
   33.9980   41.8380   27.7710 H   0  0  0  0  0  0  0  0  0  0  0  0
   32.0600   40.5850   26.9740 H   0  0  0  0  0  0  0  0  0  0  0  0
   32.2460   39.3240   28.2530 H   0  0  0  0  0  0  0  0  0  0  0  0
   33.0270   38.2220   26.3520 H   0  0  0  0  0  0  0  0  0  0  0  0
   34.6690   37.8180   28.0160 H   0  0  0  0  0  0  0  0  0  0  0  0
   35.6320   38.2010   26.5370 H   0  0  0  0  0  0  0  0  0  0  0  0
   36.4800   39.3600   28.7060 H   0  0  0  0  0  0  0  0  0  0  0  0
   36.0310   40.5420   27.3580 H   0  0  0  0  0  0  0  0  0  0  0  0
   33.8500   35.0650   24.1690 C   0  0  0  0  0  0  0  0  0  0  0  0
   34.1150   33.9830   24.0150 H   0  0  0  0  0  0  0  0  0  0  0  0
   34.4410   35.4820   25.0370 H   0  0  0  0  0  0  0  0  0  0  0  0
   32.3540   35.2470   24.4380 C   0  0  0  0  0  0  0  0  0  0  0  0
   32.1990   36.2640   24.9110 H   0  0  0  0  0  0  0  0  0  0  0  0
   31.7800   35.2920   23.4740 H   0  0  0  0  0  0  0  0  0  0  0  0
   31.6220   34.0240   25.4830 S   0  0  0  0  0  0  0  0  0  0  0  0
   32.4820   33.6750   26.6340 O   0  0  0  0  0  0  0  0  0  0  0  0
   31.3300   32.8160   24.6750 O   0  0  0  0  0  0  0  0  0  0  0  0
   30.1490   34.7690   26.0120 C   0  0  0  0  0  0  0  0  0  0  0  0
   29.4800   35.0590   25.1630 H   0  0  0  0  0  0  0  0  0  0  0  0
   29.5510   34.1160   26.6970 H   0  0  0  0  0  0  0  0  0  0  0  0
   30.3290   35.7140   26.5980 H   0  0  0  0  0  0  0  0  0  0  0  0
  1  3  2  0  0  0  0
  1  7  1  0  0  0  0
  1 21  1  0  0  0  0
  2 12  1  0  0  0  0
  2 17  2  0  0  0  0
  2 18  1  0  0  0  0
  3 13  1  0  0  0  0
  3 14  1  0  0  0  0
  4 16  2  0  0  0  0
  4 19  1  0  0  0  0
  4 20  1  0  0  0  0
  5  6  1  0  0  0  0
  5 10  1  0  0  0  0
  5 11  2  0  0  0  0
  6 12  2  0  0  0  0
  6 22  1  0  0  0  0
  7  8  2  0  0  0  0
  7 27  1  0  0  0  0
  8  9  1  0  0  0  0
  8 23  1  0  0  0  0
  9 13  2  0  0  0  0
  9 24  1  0  0  0  0
 10 18  1  0  0  0  0
 10 19  2  0  0  0  0
 11 16  1  0  0  0  0
 11 25  1  0  0  0  0
 12 15  1  0  0  0  0
 13 15  1  0  0  0  0
 18 43  1  0  0  0  0
 20 26  1  0  0  0  0
 20 30  1  0  0  0  0
 28 29  1  0  0  0  0
 28 33  1  0  0  0  0
 28 34  1  0  0  0  0
 28 35  1  0  0  0  0
 29 30  1  0  0  0  0
 29 36  1  0  0  0  0
 29 37  1  0  0  0  0
 30 31  1  0  0  0  0
 30 38  1  0  0  0  0
 31 32  1  0  0  0  0
 31 39  1  0  0  0  0
 31 40  1  0  0  0  0
 32 33  1  0  0  0  0
 32 41  1  0  0  0  0
 32 42  1  0  0  0  0
 43 44  1  0  0  0  0
 43 45  1  0  0  0  0
 43 46  1  0  0  0  0
 46 47  1  0  0  0  0
 46 48  1  0  0  0  0
 46 49  1  0  0  0  0
 49 50  2  0  0  0  0
 49 51  2  0  0  0  0
 49 52  1  0  0  0  0
 52 53  1  0  0  0  0
 52 54  1  0  0  0  0
 52 55  1  0  0  0  0
M  END
$$$$
