28
 OpenBabel02232411153D
Structure written by MMmdl.
 53 56  0  0  0  0  0  0  0  0999 V2000
    1.6670   28.9390    6.8050 C   0  0  0  0  0  0  0  0  0  0  0  0
   -1.7370   31.5840    8.0540 C   0  0  0  0  0  0  0  0  0  0  0  0
   -0.3210   26.0640    8.8890 C   0  0  0  0  0  0  0  0  0  0  0  0
   -1.0380   25.3650   10.0510 C   0  0  0  0  0  0  0  0  0  0  0  0
   -0.8130   23.8450    9.8710 C   0  0  0  0  0  0  0  0  0  0  0  0
   -1.3720   23.0490   11.0580 C   0  0  0  0  0  0  0  0  0  0  0  0
   -0.8060   23.5540   12.3940 C   0  0  0  0  0  0  0  0  0  0  0  0
   -1.0740   25.0560   12.5760 C   0  0  0  0  0  0  0  0  0  0  0  0
   -0.5010   25.8670   11.4060 C   0  0  0  0  0  0  0  0  0  0  0  0
    4.1910   25.4910    8.0170 C   0  0  0  0  0  0  0  0  0  0  0  0
    5.0840   25.0050    7.0500 C   0  0  0  0  0  0  0  0  0  0  0  0
    5.2480   25.7110    5.8530 C   0  0  0  0  0  0  0  0  0  0  0  0
    4.5110   26.8630    5.6050 C   0  0  0  0  0  0  0  0  0  0  0  0
    0.9440   27.9860    7.5140 N   0  0  0  0  0  0  0  0  0  0  0  0
   -0.2310   28.3310    8.1030 C   0  0  0  0  0  0  0  0  0  0  0  0
   -0.9090   27.4300    8.8260 O   0  0  0  0  0  0  0  0  0  0  0  0
   -0.7270   29.6540    7.9630 C   0  0  0  0  0  0  0  0  0  0  0  0
   -1.8540   30.3170    8.4600 N   0  0  0  0  0  0  0  0  0  0  0  0
   -0.5360   31.8040    7.2910 N   0  0  0  0  0  0  0  0  0  0  0  0
    0.1070   30.5740    7.2080 C   0  0  0  0  0  0  0  0  0  0  0  0
    1.2930   30.2500    6.5920 N   0  0  0  0  0  0  0  0  0  0  0  0
    2.8770   28.5220    6.2440 N   0  0  0  0  0  0  0  0  0  0  0  0
    3.5920   27.3350    6.5700 C   0  0  0  0  0  0  0  0  0  0  0  0
    3.4600   26.6540    7.7950 C   0  0  0  0  0  0  0  0  0  0  0  0
   -2.4230   32.3970    8.2700 H   0  0  0  0  0  0  0  0  0  0  0  0
    0.7720   26.1470    9.0800 H   0  0  0  0  0  0  0  0  0  0  0  0
   -0.5410   25.6030    7.9060 H   0  0  0  0  0  0  0  0  0  0  0  0
   -2.1320   25.5790   10.0100 H   0  0  0  0  0  0  0  0  0  0  0  0
   -1.3180   23.5070    8.9390 H   0  0  0  0  0  0  0  0  0  0  0  0
    0.2820   23.6410    9.7860 H   0  0  0  0  0  0  0  0  0  0  0  0
   -2.4790   23.1510   11.0780 H   0  0  0  0  0  0  0  0  0  0  0  0
   -1.1140   21.9710   10.9350 H   0  0  0  0  0  0  0  0  0  0  0  0
   -1.2780   22.9910   13.2310 H   0  0  0  0  0  0  0  0  0  0  0  0
    0.2940   23.3760   12.4140 H   0  0  0  0  0  0  0  0  0  0  0  0
   -2.1710   25.2310   12.6640 H   0  0  0  0  0  0  0  0  0  0  0  0
   -0.5900   25.4000   13.5200 H   0  0  0  0  0  0  0  0  0  0  0  0
    0.6120   25.7790   11.4290 H   0  0  0  0  0  0  0  0  0  0  0  0
   -0.7720   26.9400   11.5340 H   0  0  0  0  0  0  0  0  0  0  0  0
    4.0570   24.9670    8.9730 H   0  0  0  0  0  0  0  0  0  0  0  0
    5.9540   25.3840    5.0830 H   0  0  0  0  0  0  0  0  0  0  0  0
    4.6550   27.4000    4.6660 H   0  0  0  0  0  0  0  0  0  0  0  0
   -0.2550   32.6780    6.8210 H   0  0  0  0  0  0  0  0  0  0  0  0
    3.3870   29.1740    5.6020 H   0  0  0  0  0  0  0  0  0  0  0  0
    2.7890   27.0200    8.5740 H   0  0  0  0  0  0  0  0  0  0  0  0
    6.0050   23.6040    7.4470 S   0  0  0  0  0  0  0  0  0  0  0  0
    6.9150   24.0220    8.5110 O   0  0  0  0  0  0  0  0  0  0  0  0
    5.1210   22.4620    7.6900 O   0  0  0  0  0  0  0  0  0  0  0  0
    7.0050   23.1550    6.1370 N   0  0  0  0  0  0  0  0  0  0  0  0
    7.7610   23.7940    5.8420 H   0  0  0  0  0  0  0  0  0  0  0  0
    6.4170   22.4480    4.9750 C   0  0  0  0  0  0  0  0  0  0  0  0
    7.2520   22.0630    4.3260 H   0  0  0  0  0  0  0  0  0  0  0  0
    5.8150   21.5640    5.3100 H   0  0  0  0  0  0  0  0  0  0  0  0
    5.7730   23.1160    4.3410 H   0  0  0  0  0  0  0  0  0  0  0  0
  1 14  2  0  0  0  0
  1 21  1  0  0  0  0
  1 22  1  0  0  0  0
  2 18  2  0  0  0  0
  2 19  1  0  0  0  0
  2 25  1  0  0  0  0
  3  4  1  0  0  0  0
  3 16  1  0  0  0  0
  3 26  1  0  0  0  0
  3 27  1  0  0  0  0
  4  5  1  0  0  0  0
  4  9  1  0  0  0  0
  4 28  1  0  0  0  0
  5  6  1  0  0  0  0
  5 29  1  0  0  0  0
  5 30  1  0  0  0  0
  6  7  1  0  0  0  0
  6 31  1  0  0  0  0
  6 32  1  0  0  0  0
  7  8  1  0  0  0  0
  7 33  1  0  0  0  0
  7 34  1  0  0  0  0
  8  9  1  0  0  0  0
  8 35  1  0  0  0  0
  8 36  1  0  0  0  0
  9 37  1  0  0  0  0
  9 38  1  0  0  0  0
 10 11  2  0  0  0  0
 10 24  1  0  0  0  0
 10 39  1  0  0  0  0
 11 12  1  0  0  0  0
 11 45  1  0  0  0  0
 12 13  2  0  0  0  0
 12 40  1  0  0  0  0
 13 23  1  0  0  0  0
 13 41  1  0  0  0  0
 14 15  1  0  0  0  0
 15 16  1  0  0  0  0
 15 17  2  0  0  0  0
 17 18  1  0  0  0  0
 17 20  1  0  0  0  0
 19 20  1  0  0  0  0
 19 42  1  0  0  0  0
 20 21  2  0  0  0  0
 22 23  1  0  0  0  0
 22 43  1  0  0  0  0
 23 24  2  0  0  0  0
 24 44  1  0  0  0  0
 45 46  2  0  0  0  0
 45 47  2  0  0  0  0
 45 48  1  0  0  0  0
 48 49  1  0  0  0  0
 48 50  1  0  0  0  0
 50 51  1  0  0  0  0
 50 52  1  0  0  0  0
 50 53  1  0  0  0  0
M  END
$$$$
