p38a_3flw
 OpenBabel02232411163D
Structure written by MMmdl.
 49 51  0  0  0  0  0  0  0  0999 V2000
   36.3560   36.0490   15.8090 C   0  0  0  0  0  0  0  0  0  0  0  0
   37.6480   36.5620   15.9810 C   0  0  0  0  0  0  0  0  0  0  0  0
   31.9200   37.9630   26.1000 C   0  0  0  0  0  0  0  0  0  0  0  0
   31.1390   37.7560   27.4060 C   0  0  0  0  0  0  0  0  0  0  0  0
   34.1570   38.8990   26.9500 C   0  0  0  0  0  0  0  0  0  0  0  0
   33.7160   34.9290   23.7010 C   0  0  0  0  0  0  0  0  0  0  0  0
   34.5090   35.0400   16.8760 F   0  0  0  0  0  0  0  0  0  0  0  0
   35.7200   35.5740   16.9510 C   0  0  0  0  0  0  0  0  0  0  0  0
   38.2570   37.0880   14.9200 F   0  0  0  0  0  0  0  0  0  0  0  0
   38.3110   36.5830   17.2110 C   0  0  0  0  0  0  0  0  0  0  0  0
   37.6360   36.1340   18.3520 C   0  0  0  0  0  0  0  0  0  0  0  0
   36.3400   35.6290   18.2170 C   0  0  0  0  0  0  0  0  0  0  0  0
   35.6400   35.0150   19.2630 O   0  0  0  0  0  0  0  0  0  0  0  0
   35.1770   35.8560   20.2710 C   0  0  0  0  0  0  0  0  0  0  0  0
   35.2250   37.2060   20.3250 C   0  0  0  0  0  0  0  0  0  0  0  0
   34.7020   37.8700   21.4890 C   0  0  0  0  0  0  0  0  0  0  0  0
   34.6600   39.2840   21.6200 C   0  0  0  0  0  0  0  0  0  0  0  0
   34.2000   39.9010   22.7180 N   0  0  0  0  0  0  0  0  0  0  0  0
   34.5590   35.0030   21.3240 C   0  0  0  0  0  0  0  0  0  0  0  0
   34.3610   33.8110   21.2340 O   0  0  0  0  0  0  0  0  0  0  0  0
   34.1840   35.7080   22.5210 N   0  0  0  0  0  0  0  0  0  0  0  0
   34.2140   37.1100   22.5930 C   0  0  0  0  0  0  0  0  0  0  0  0
   33.7520   37.7120   23.7410 N   0  0  0  0  0  0  0  0  0  0  0  0
   33.7280   39.0870   23.7710 C   0  0  0  0  0  0  0  0  0  0  0  0
   33.1350   39.7630   24.8250 N   0  0  0  0  0  0  0  0  0  0  0  0
   32.8490   39.1890   26.1800 C   0  0  0  0  0  0  0  0  0  0  0  0
   34.8430   40.1970   27.4010 C   0  0  0  0  0  0  0  0  0  0  0  0
   35.9110   39.9260   28.3230 O   0  0  0  0  0  0  0  0  0  0  0  0
   30.6850   36.3830   27.4180 O   0  0  0  0  0  0  0  0  0  0  0  0
   35.8670   36.0450   14.8320 H   0  0  0  0  0  0  0  0  0  0  0  0
   32.5150   37.0390   25.8870 H   0  0  0  0  0  0  0  0  0  0  0  0
   31.1950   38.1050   25.2620 H   0  0  0  0  0  0  0  0  0  0  0  0
   31.7930   37.8520   28.3030 H   0  0  0  0  0  0  0  0  0  0  0  0
   30.2670   38.4400   27.4750 H   0  0  0  0  0  0  0  0  0  0  0  0
   33.9160   38.2900   27.8570 H   0  0  0  0  0  0  0  0  0  0  0  0
   34.8450   38.2930   26.3150 H   0  0  0  0  0  0  0  0  0  0  0  0
   32.6300   35.1370   23.8930 H   0  0  0  0  0  0  0  0  0  0  0  0
   33.8600   33.8310   23.5240 H   0  0  0  0  0  0  0  0  0  0  0  0
   34.3040   35.2320   24.6110 H   0  0  0  0  0  0  0  0  0  0  0  0
   39.3290   36.9720   17.2930 H   0  0  0  0  0  0  0  0  0  0  0  0
   38.1190   36.2040   19.3290 H   0  0  0  0  0  0  0  0  0  0  0  0
   35.6510   37.8230   19.5290 H   0  0  0  0  0  0  0  0  0  0  0  0
   35.0140   39.9230   20.7950 H   0  0  0  0  0  0  0  0  0  0  0  0
   33.3110   40.7910   24.8750 H   0  0  0  0  0  0  0  0  0  0  0  0
   32.2930   40.0220   26.7090 H   0  0  0  0  0  0  0  0  0  0  0  0
   35.2520   40.7640   26.5340 H   0  0  0  0  0  0  0  0  0  0  0  0
   34.1500   40.8370   28.0000 H   0  0  0  0  0  0  0  0  0  0  0  0
   36.5540   39.3070   27.9070 H   0  0  0  0  0  0  0  0  0  0  0  0
   29.6690   36.3860   27.5560 H   0  0  0  0  0  0  0  0  0  0  0  0
  1  2  2  0  0  0  0
  1  8  1  0  0  0  0
  1 30  1  0  0  0  0
  2  9  1  0  0  0  0
  2 10  1  0  0  0  0
  3  4  1  0  0  0  0
  3 26  1  0  0  0  0
  3 31  1  0  0  0  0
  3 32  1  0  0  0  0
  4 29  1  0  0  0  0
  4 33  1  0  0  0  0
  4 34  1  0  0  0  0
  5 26  1  0  0  0  0
  5 27  1  0  0  0  0
  5 35  1  0  0  0  0
  5 36  1  0  0  0  0
  6 21  1  0  0  0  0
  6 37  1  0  0  0  0
  6 38  1  0  0  0  0
  6 39  1  0  0  0  0
  7  8  1  0  0  0  0
  8 12  2  0  0  0  0
 10 11  2  0  0  0  0
 10 40  1  0  0  0  0
 11 12  1  0  0  0  0
 11 41  1  0  0  0  0
 12 13  1  0  0  0  0
 13 14  1  0  0  0  0
 14 15  2  0  0  0  0
 14 19  1  0  0  0  0
 15 16  1  0  0  0  0
 15 42  1  0  0  0  0
 16 17  2  0  0  0  0
 16 22  1  0  0  0  0
 17 18  1  0  0  0  0
 17 43  1  0  0  0  0
 18 24  2  0  0  0  0
 19 20  2  0  0  0  0
 19 21  1  0  0  0  0
 21 22  1  0  0  0  0
 22 23  2  0  0  0  0
 23 24  1  0  0  0  0
 24 25  1  0  0  0  0
 25 26  1  0  0  0  0
 25 44  1  0  0  0  0
 26 45  1  0  0  0  0
 27 28  1  0  0  0  0
 27 46  1  0  0  0  0
 27 47  1  0  0  0  0
 28 48  1  0  0  0  0
 29 49  1  0  0  0  0
M  END
$$$$
