p38a_3flq
 OpenBabel02232411163D
Structure written by MMmdl.
 47 49  0  0  1  0  0  0  0  0999 V2000
   33.3720   39.0810   23.7540 C   0  0  0  0  0  0  0  0  0  0  0  0
   34.4590   37.9470   21.4740 C   0  0  0  0  0  0  0  0  0  0  0  0
   35.0210   37.3240   20.3040 C   0  0  0  0  0  0  0  0  0  0  0  0
   33.7690   37.1640   22.4460 C   0  0  0  0  0  0  0  0  0  0  0  0
   34.9300   35.9810   20.1810 C   0  0  0  0  0  0  0  0  0  0  0  0
   31.8690   39.2500   25.8710 C   0  0  1  0  0  0  0  0  0  0  0  0
   31.5380   37.7630   25.8360 C   0  0  0  0  0  0  0  0  0  0  0  0
   34.8530   40.6450   27.7960 C   0  0  0  0  0  0  0  0  0  0  0  0
   33.6510   35.7750   22.2780 N   0  0  0  0  0  0  0  0  0  0  0  0
   32.2970   39.7190   27.2820 C   0  0  0  0  0  0  0  0  0  0  0  0
   38.3040   37.1850   14.9600 F   0  0  0  0  0  0  0  0  0  0  0  0
   37.6040   36.7130   15.9890 C   0  0  0  0  0  0  0  0  0  0  0  0
   36.2440   36.4510   15.8010 C   0  0  0  0  0  0  0  0  0  0  0  0
   35.4840   36.0020   16.8870 C   0  0  0  0  0  0  0  0  0  0  0  0
   38.2630   36.5410   17.2140 C   0  0  0  0  0  0  0  0  0  0  0  0
   37.4820   36.1030   18.2800 C   0  0  0  0  0  0  0  0  0  0  0  0
   38.0250   35.9470   19.4800 F   0  0  0  0  0  0  0  0  0  0  0  0
   36.1100   35.8140   18.1230 C   0  0  0  0  0  0  0  0  0  0  0  0
   35.4110   35.1740   19.1530 O   0  0  0  0  0  0  0  0  0  0  0  0
   34.2570   35.0910   21.1670 C   0  0  0  0  0  0  0  0  0  0  0  0
   34.2010   33.8830   21.0970 O   0  0  0  0  0  0  0  0  0  0  0  0
   34.5510   39.3400   21.7290 C   0  0  0  0  0  0  0  0  0  0  0  0
   34.0470   39.9130   22.8320 N   0  0  0  0  0  0  0  0  0  0  0  0
   33.2180   37.7270   23.5720 N   0  0  0  0  0  0  0  0  0  0  0  0
   32.8500   34.9880   23.2570 C   0  0  0  0  0  0  0  0  0  0  0  0
   32.9040   39.7180   24.8880 N   0  0  0  0  0  0  0  0  0  0  0  0
   33.8770   39.2100   27.8830 S   0  0  0  0  0  0  0  0  0  0  0  0
   33.7560   38.7720   29.2980 O   0  0  0  0  0  0  0  0  0  0  0  0
   34.4720   38.1350   27.0700 O   0  0  0  0  0  0  0  0  0  0  0  0
   35.4990   37.9640   19.5580 H   0  0  0  0  0  0  0  0  0  0  0  0
   30.9250   39.8250   25.6100 H   0  0  0  0  0  0  0  0  0  0  0  0
   31.0560   37.4940   24.8670 H   0  0  0  0  0  0  0  0  0  0  0  0
   32.4480   37.1310   25.9660 H   0  0  0  0  0  0  0  0  0  0  0  0
   30.8110   37.5270   26.6500 H   0  0  0  0  0  0  0  0  0  0  0  0
   35.8980   40.4870   28.1660 H   0  0  0  0  0  0  0  0  0  0  0  0
   34.9270   41.0630   26.7580 H   0  0  0  0  0  0  0  0  0  0  0  0
   34.4290   41.4790   28.4230 H   0  0  0  0  0  0  0  0  0  0  0  0
   32.2440   40.8450   27.3060 H   0  0  0  0  0  0  0  0  0  0  0  0
   31.5000   39.3670   27.9970 H   0  0  0  0  0  0  0  0  0  0  0  0
   35.7660   36.6040   14.8310 H   0  0  0  0  0  0  0  0  0  0  0  0
   34.4130   35.8130   16.7600 H   0  0  0  0  0  0  0  0  0  0  0  0
   39.3250   36.7740   17.3330 H   0  0  0  0  0  0  0  0  0  0  0  0
   35.0450   40.0040   21.0010 H   0  0  0  0  0  0  0  0  0  0  0  0
   32.8810   33.8980   22.9950 H   0  0  0  0  0  0  0  0  0  0  0  0
   33.2560   35.1280   24.2950 H   0  0  0  0  0  0  0  0  0  0  0  0
   31.7830   35.3410   23.2420 H   0  0  0  0  0  0  0  0  0  0  0  0
   33.0630   40.7510   24.9450 H   0  0  0  0  0  0  0  0  0  0  0  0
  1 23  2  0  0  0  0
  1 24  1  0  0  0  0
  1 26  1  0  0  0  0
  2  3  1  0  0  0  0
  2  4  1  0  0  0  0
  2 22  2  0  0  0  0
  3  5  2  0  0  0  0
  3 30  1  0  0  0  0
  4  9  1  0  0  0  0
  4 24  2  0  0  0  0
  5 19  1  0  0  0  0
  5 20  1  0  0  0  0
  6  7  1  0  0  0  0
  6 10  1  0  0  0  0
  6 26  1  0  0  0  0
  6 31  1  6  0  0  0
  7 32  1  0  0  0  0
  7 33  1  0  0  0  0
  7 34  1  0  0  0  0
  8 27  1  0  0  0  0
  8 35  1  0  0  0  0
  8 36  1  0  0  0  0
  8 37  1  0  0  0  0
  9 20  1  0  0  0  0
  9 25  1  0  0  0  0
 10 27  1  0  0  0  0
 10 38  1  0  0  0  0
 10 39  1  0  0  0  0
 11 12  1  0  0  0  0
 12 13  2  0  0  0  0
 12 15  1  0  0  0  0
 13 14  1  0  0  0  0
 13 40  1  0  0  0  0
 14 18  2  0  0  0  0
 14 41  1  0  0  0  0
 15 16  2  0  0  0  0
 15 42  1  0  0  0  0
 16 17  1  0  0  0  0
 16 18  1  0  0  0  0
 18 19  1  0  0  0  0
 20 21  2  0  0  0  0
 22 23  1  0  0  0  0
 22 43  1  0  0  0  0
 25 44  1  0  0  0  0
 25 45  1  0  0  0  0
 25 46  1  0  0  0  0
 26 47  1  0  0  0  0
 27 28  2  0  0  0  0
 27 29  2  0  0  0  0
M  END
$$$$
