18660-1
 OpenBabel02232411163D
Structure written by MMmdl.
 52 53  0  0  0  0  0  0  0  0999 V2000
   22.0280   13.3590   29.0020 C   0  0  0  0  0  0  0  0  0  0  0  0
   23.7360   13.0630   29.1600 S   0  0  0  0  0  0  0  0  0  0  0  0
   24.4710   13.5100   27.9620 O   0  0  0  0  0  0  0  0  0  0  0  0
   24.2390   13.7370   30.3670 O   0  0  0  0  0  0  0  0  0  0  0  0
   23.8480   11.3160   29.3660 C   0  0  0  0  0  0  0  0  0  0  0  0
   23.8180   10.8280   30.8030 C   0  0  0  0  0  0  0  0  0  0  0  0
   22.4680   11.0330   31.3740 O   0  0  0  0  0  0  0  0  0  0  0  0
   21.6860    9.9520   31.6310 C   0  0  0  0  0  0  0  0  0  0  0  0
   22.0710    8.7550   31.1420 N   0  0  0  0  0  0  0  0  0  0  0  0
   21.2630    7.6580   31.4090 C   0  0  0  0  0  0  0  0  0  0  0  0
   20.1040    7.7520   32.1730 C   0  0  0  0  0  0  0  0  0  0  0  0
   19.7080    9.0160   32.6840 C   0  0  0  0  0  0  0  0  0  0  0  0
   18.5670    9.1040   33.4400 N   0  0  0  0  0  0  0  0  0  0  0  0
   20.5070   10.1740   32.3980 C   0  0  0  0  0  0  0  0  0  0  0  0
   20.1810   11.4790   32.8240 C   0  0  0  0  0  0  0  0  0  0  0  0
   19.9500   12.5670   33.1520 N   0  0  0  0  0  0  0  0  0  0  0  0
   21.7760    6.4950   30.8080 N   0  0  0  0  0  0  0  0  0  0  0  0
   21.1720    5.2160   30.7650 C   0  0  0  0  0  0  0  0  0  0  0  0
   20.1070    4.9810   31.2920 O   0  0  0  0  0  0  0  0  0  0  0  0
   21.9650    4.2200   29.9340 C   0  0  0  0  0  0  0  0  0  0  0  0
   23.3170    3.9190   30.5130 C   0  0  0  0  0  0  0  0  0  0  0  0
   24.4250    4.7580   30.2480 C   0  0  0  0  0  0  0  0  0  0  0  0
   24.1260    5.8230   29.3990 O   0  0  0  0  0  0  0  0  0  0  0  0
   25.0920    6.9070   29.3210 C   0  0  0  0  0  0  0  0  0  0  0  0
   25.6930    4.4950   30.7820 C   0  0  0  0  0  0  0  0  0  0  0  0
   25.8760    3.3810   31.5950 C   0  0  0  0  0  0  0  0  0  0  0  0
   24.7800    2.5330   31.8530 C   0  0  0  0  0  0  0  0  0  0  0  0
   23.5110    2.7900   31.3160 C   0  0  0  0  0  0  0  0  0  0  0  0
   25.1050    1.4780   32.6790 O   0  0  0  0  0  0  0  0  0  0  0  0
   24.1060    0.4460   32.8850 C   0  0  0  0  0  0  0  0  0  0  0  0
   21.6010   12.8660   28.0930 H   0  0  0  0  0  0  0  0  0  0  0  0
   21.4610   12.9710   29.8920 H   0  0  0  0  0  0  0  0  0  0  0  0
   21.8010   14.4580   28.9350 H   0  0  0  0  0  0  0  0  0  0  0  0
   23.0450   10.7880   28.7730 H   0  0  0  0  0  0  0  0  0  0  0  0
   24.8140   10.9330   28.9110 H   0  0  0  0  0  0  0  0  0  0  0  0
   24.1190    9.7520   30.8580 H   0  0  0  0  0  0  0  0  0  0  0  0
   24.4320   11.4550   31.4940 H   0  0  0  0  0  0  0  0  0  0  0  0
   19.4880    6.8720   32.3720 H   0  0  0  0  0  0  0  0  0  0  0  0
   18.2200   10.0030   33.7760 H   0  0  0  0  0  0  0  0  0  0  0  0
   18.0280    8.2540   33.6890 H   0  0  0  0  0  0  0  0  0  0  0  0
   22.6920    6.6280   30.3030 H   0  0  0  0  0  0  0  0  0  0  0  0
   21.3710    3.2760   29.8420 H   0  0  0  0  0  0  0  0  0  0  0  0
   22.0970    4.6640   28.9090 H   0  0  0  0  0  0  0  0  0  0  0  0
   25.9760    6.5640   28.7400 H   0  0  0  0  0  0  0  0  0  0  0  0
   24.5160    7.6850   28.7700 H   0  0  0  0  0  0  0  0  0  0  0  0
   25.3700    7.2630   30.3360 H   0  0  0  0  0  0  0  0  0  0  0  0
   26.5450    5.1450   30.5650 H   0  0  0  0  0  0  0  0  0  0  0  0
   26.8600    3.1660   32.0210 H   0  0  0  0  0  0  0  0  0  0  0  0
   22.6750    2.1190   31.5160 H   0  0  0  0  0  0  0  0  0  0  0  0
   24.6670   -0.2850   33.5150 H   0  0  0  0  0  0  0  0  0  0  0  0
   23.2340    0.8600   33.4340 H   0  0  0  0  0  0  0  0  0  0  0  0
   23.8180   -0.0060   31.9110 H   0  0  0  0  0  0  0  0  0  0  0  0
  1  2  1  0  0  0  0
  1 31  1  0  0  0  0
  1 32  1  0  0  0  0
  1 33  1  0  0  0  0
  2  3  2  0  0  0  0
  2  4  2  0  0  0  0
  2  5  1  0  0  0  0
  5  6  1  0  0  0  0
  5 34  1  0  0  0  0
  5 35  1  0  0  0  0
  6  7  1  0  0  0  0
  6 36  1  0  0  0  0
  6 37  1  0  0  0  0
  7  8  1  0  0  0  0
  8 14  2  0  0  0  0
  8  9  1  0  0  0  0
  9 10  2  0  0  0  0
 10 11  1  0  0  0  0
 10 17  1  0  0  0  0
 11 12  2  0  0  0  0
 11 38  1  0  0  0  0
 12 13  1  0  0  0  0
 12 14  1  0  0  0  0
 13 39  1  0  0  0  0
 13 40  1  0  0  0  0
 14 15  1  0  0  0  0
 15 16  3  0  0  0  0
 17 18  1  0  0  0  0
 17 41  1  0  0  0  0
 18 19  2  0  0  0  0
 18 20  1  0  0  0  0
 20 21  1  0  0  0  0
 20 42  1  0  0  0  0
 20 43  1  0  0  0  0
 21 28  2  0  0  0  0
 21 22  1  0  0  0  0
 22 23  1  0  0  0  0
 22 25  2  0  0  0  0
 23 24  1  0  0  0  0
 24 44  1  0  0  0  0
 24 45  1  0  0  0  0
 24 46  1  0  0  0  0
 25 26  1  0  0  0  0
 25 47  1  0  0  0  0
 26 27  2  0  0  0  0
 26 48  1  0  0  0  0
 27 28  1  0  0  0  0
 27 29  1  0  0  0  0
 28 49  1  0  0  0  0
 29 30  1  0  0  0  0
 30 50  1  0  0  0  0
 30 51  1  0  0  0  0
 30 52  1  0  0  0  0
M  END
$$$$
