p38a_3flw
 OpenBabel02232411163D
Structure written by MMmdl.
 49 51  0  0  0  0  0  0  0  0999 V2000
   36.3450   35.9940   15.8560 C   0  0  0  0  0  0  0  0  0  0  0  0
   37.6360   36.4970   16.0600 C   0  0  0  0  0  0  0  0  0  0  0  0
   33.8300   39.7470   27.6190 C   0  0  0  0  0  0  0  0  0  0  0  0
   35.3180   39.4370   27.8310 C   0  0  0  0  0  0  0  0  0  0  0  0
   31.7630   39.4120   26.2180 C   0  0  0  0  0  0  0  0  0  0  0  0
   33.9630   34.9950   23.8840 C   0  0  0  0  0  0  0  0  0  0  0  0
   34.4560   35.0160   16.8790 F   0  0  0  0  0  0  0  0  0  0  0  0
   35.6710   35.5370   16.9840 C   0  0  0  0  0  0  0  0  0  0  0  0
   38.2780   37.0130   15.0140 F   0  0  0  0  0  0  0  0  0  0  0  0
   38.2660   36.5180   17.3080 C   0  0  0  0  0  0  0  0  0  0  0  0
   37.5550   36.0850   18.4320 C   0  0  0  0  0  0  0  0  0  0  0  0
   36.2550   35.5980   18.2660 C   0  0  0  0  0  0  0  0  0  0  0  0
   35.5010   35.0220   19.2970 O   0  0  0  0  0  0  0  0  0  0  0  0
   35.1430   35.8740   20.3380 C   0  0  0  0  0  0  0  0  0  0  0  0
   35.2410   37.2220   20.3800 C   0  0  0  0  0  0  0  0  0  0  0  0
   34.8470   37.9060   21.5830 C   0  0  0  0  0  0  0  0  0  0  0  0
   34.8460   39.3200   21.7040 C   0  0  0  0  0  0  0  0  0  0  0  0
   34.5380   39.9580   22.8460 N   0  0  0  0  0  0  0  0  0  0  0  0
   34.5690   35.0470   21.4360 C   0  0  0  0  0  0  0  0  0  0  0  0
   34.2990   33.8700   21.3620 O   0  0  0  0  0  0  0  0  0  0  0  0
   34.3310   35.7650   22.6630 N   0  0  0  0  0  0  0  0  0  0  0  0
   34.4450   37.1610   22.7310 C   0  0  0  0  0  0  0  0  0  0  0  0
   34.1300   37.7820   23.9150 N   0  0  0  0  0  0  0  0  0  0  0  0
   34.2140   39.1610   23.9570 C   0  0  0  0  0  0  0  0  0  0  0  0
   34.0100   39.8030   25.1630 N   0  0  0  0  0  0  0  0  0  0  0  0
   33.2860   39.1530   26.3000 C   0  0  0  0  0  0  0  0  0  0  0  0
   31.0690   38.9680   24.9230 C   0  0  0  0  0  0  0  0  0  0  0  0
   31.1930   37.5650   24.6660 O   0  0  0  0  0  0  0  0  0  0  0  0
   35.7110   39.7050   29.1900 O   0  0  0  0  0  0  0  0  0  0  0  0
   35.8840   35.9870   14.8650 H   0  0  0  0  0  0  0  0  0  0  0  0
   33.2380   39.3140   28.4650 H   0  0  0  0  0  0  0  0  0  0  0  0
   33.6700   40.8540   27.6270 H   0  0  0  0  0  0  0  0  0  0  0  0
   35.5270   38.3490   27.7210 H   0  0  0  0  0  0  0  0  0  0  0  0
   35.9480   40.0530   27.1520 H   0  0  0  0  0  0  0  0  0  0  0  0
   31.2870   38.8860   27.0840 H   0  0  0  0  0  0  0  0  0  0  0  0
   31.5900   40.5110   26.3350 H   0  0  0  0  0  0  0  0  0  0  0  0
   34.5100   35.4050   24.7780 H   0  0  0  0  0  0  0  0  0  0  0  0
   32.8600   35.0690   24.0710 H   0  0  0  0  0  0  0  0  0  0  0  0
   34.2460   33.9160   23.7580 H   0  0  0  0  0  0  0  0  0  0  0  0
   39.2870   36.8950   17.4120 H   0  0  0  0  0  0  0  0  0  0  0  0
   38.0130   36.1530   19.4220 H   0  0  0  0  0  0  0  0  0  0  0  0
   35.6200   37.8230   19.5490 H   0  0  0  0  0  0  0  0  0  0  0  0
   35.0890   39.9450   20.8300 H   0  0  0  0  0  0  0  0  0  0  0  0
   33.9410   40.8430   25.1680 H   0  0  0  0  0  0  0  0  0  0  0  0
   33.4890   38.0480   26.2870 H   0  0  0  0  0  0  0  0  0  0  0  0
   29.9670   39.1150   25.0200 H   0  0  0  0  0  0  0  0  0  0  0  0
   31.4770   39.5270   24.0520 H   0  0  0  0  0  0  0  0  0  0  0  0
   32.1540   37.3490   24.5940 H   0  0  0  0  0  0  0  0  0  0  0  0
   35.4890   40.6440   29.4150 H   0  0  0  0  0  0  0  0  0  0  0  0
  1  2  2  0  0  0  0
  1  8  1  0  0  0  0
  1 30  1  0  0  0  0
  2  9  1  0  0  0  0
  2 10  1  0  0  0  0
  3  4  1  0  0  0  0
  3 26  1  0  0  0  0
  3 31  1  0  0  0  0
  3 32  1  0  0  0  0
  4 29  1  0  0  0  0
  4 33  1  0  0  0  0
  4 34  1  0  0  0  0
  5 26  1  0  0  0  0
  5 27  1  0  0  0  0
  5 35  1  0  0  0  0
  5 36  1  0  0  0  0
  6 21  1  0  0  0  0
  6 37  1  0  0  0  0
  6 38  1  0  0  0  0
  6 39  1  0  0  0  0
  7  8  1  0  0  0  0
  8 12  2  0  0  0  0
 10 11  2  0  0  0  0
 10 40  1  0  0  0  0
 11 12  1  0  0  0  0
 11 41  1  0  0  0  0
 12 13  1  0  0  0  0
 13 14  1  0  0  0  0
 14 15  2  0  0  0  0
 14 19  1  0  0  0  0
 15 16  1  0  0  0  0
 15 42  1  0  0  0  0
 16 17  2  0  0  0  0
 16 22  1  0  0  0  0
 17 18  1  0  0  0  0
 17 43  1  0  0  0  0
 18 24  2  0  0  0  0
 19 20  2  0  0  0  0
 19 21  1  0  0  0  0
 21 22  1  0  0  0  0
 22 23  2  0  0  0  0
 23 24  1  0  0  0  0
 24 25  1  0  0  0  0
 25 26  1  0  0  0  0
 25 44  1  0  0  0  0
 26 45  1  0  0  0  0
 27 28  1  0  0  0  0
 27 46  1  0  0  0  0
 27 47  1  0  0  0  0
 28 48  1  0  0  0  0
 29 49  1  0  0  0  0
M  END
$$$$
