p38a_3fmh
 OpenBabel02232411163D
Structure written by MMmdl.
 46 49  0  0  1  0  0  0  0  0999 V2000
   38.3560   37.2220   14.9040 F   0  0  0  0  0  0  0  0  0  0  0  0
   37.6390   36.7150   15.9030 C   0  0  0  0  0  0  0  0  0  0  0  0
   36.2920   36.4300   15.6730 C   0  0  0  0  0  0  0  0  0  0  0  0
   35.5080   35.9510   16.7280 C   0  0  0  0  0  0  0  0  0  0  0  0
   38.2670   36.5350   17.1440 C   0  0  0  0  0  0  0  0  0  0  0  0
   37.4640   36.0720   18.1820 C   0  0  0  0  0  0  0  0  0  0  0  0
   37.9740   35.9180   19.3960 F   0  0  0  0  0  0  0  0  0  0  0  0
   36.1010   35.7640   17.9800 C   0  0  0  0  0  0  0  0  0  0  0  0
   35.3570   35.1380   18.9900 O   0  0  0  0  0  0  0  0  0  0  0  0
   34.9910   35.9570   20.0560 C   0  0  0  0  0  0  0  0  0  0  0  0
   34.5410   35.0940   21.1810 C   0  0  0  0  0  0  0  0  0  0  0  0
   34.4040   33.8910   21.1350 O   0  0  0  0  0  0  0  0  0  0  0  0
   34.2580   35.8060   22.3990 N   0  0  0  0  0  0  0  0  0  0  0  0
   33.8840   35.0370   23.6200 C   0  0  0  0  0  0  0  0  0  0  0  0
   34.3150   37.2060   22.4720 C   0  0  0  0  0  0  0  0  0  0  0  0
   34.0480   37.8060   23.6790 N   0  0  0  0  0  0  0  0  0  0  0  0
   35.0030   37.3090   20.0910 C   0  0  0  0  0  0  0  0  0  0  0  0
   34.6420   37.9730   21.3140 C   0  0  0  0  0  0  0  0  0  0  0  0
   34.6180   39.3860   21.4490 C   0  0  0  0  0  0  0  0  0  0  0  0
   34.3610   40.0020   22.6130 N   0  0  0  0  0  0  0  0  0  0  0  0
   34.0930   39.1810   23.7270 C   0  0  0  0  0  0  0  0  0  0  0  0
   33.7960   39.8370   24.9040 N   0  0  0  0  0  0  0  0  0  0  0  0
   33.7730   39.2150   26.2590 C   0  0  2  0  0  0  0  0  0  0  0  0
   35.0550   38.4540   26.5920 C   0  0  0  0  0  0  0  0  0  0  0  0
   32.5020   38.3190   26.3690 C   0  0  0  0  0  0  0  0  0  0  0  0
   32.1820   38.0380   27.7870 N   0  0  0  0  0  0  0  0  0  0  0  0
   32.3150   36.8080   28.3550 N   0  0  0  0  0  0  0  0  0  0  0  0
   31.9630   36.9990   29.6590 C   0  0  0  0  0  0  0  0  0  0  0  0
   31.6230   38.3640   29.8510 N   0  0  0  0  0  0  0  0  0  0  0  0
   31.7660   38.9660   28.7110 N   0  0  0  0  0  0  0  0  0  0  0  0
   35.8370   36.5930   14.6940 H   0  0  0  0  0  0  0  0  0  0  0  0
   34.4450   35.7430   16.5700 H   0  0  0  0  0  0  0  0  0  0  0  0
   39.3210   36.7850   17.2980 H   0  0  0  0  0  0  0  0  0  0  0  0
   34.5730   35.3030   24.4680 H   0  0  0  0  0  0  0  0  0  0  0  0
   32.8330   35.2930   23.9240 H   0  0  0  0  0  0  0  0  0  0  0  0
   33.9540   33.9360   23.4240 H   0  0  0  0  0  0  0  0  0  0  0  0
   35.2910   37.9240   19.2370 H   0  0  0  0  0  0  0  0  0  0  0  0
   34.8160   40.0270   20.5740 H   0  0  0  0  0  0  0  0  0  0  0  0
   33.8740   40.8740   24.9260 H   0  0  0  0  0  0  0  0  0  0  0  0
   33.6640   40.0890   26.9720 H   0  0  0  0  0  0  0  0  0  0  0  0
   35.0550   38.1590   27.6660 H   0  0  0  0  0  0  0  0  0  0  0  0
   35.1500   37.5260   25.9790 H   0  0  0  0  0  0  0  0  0  0  0  0
   35.9420   39.1000   26.4060 H   0  0  0  0  0  0  0  0  0  0  0  0
   31.6260   38.8520   25.9010 H   0  0  0  0  0  0  0  0  0  0  0  0
   32.6670   37.3400   25.8290 H   0  0  0  0  0  0  0  0  0  0  0  0
   31.9400   36.2390   30.4400 H   0  0  0  0  0  0  0  0  0  0  0  0
  1  2  1  0  0  0  0
  2  3  2  0  0  0  0
  2  5  1  0  0  0  0
  3  4  1  0  0  0  0
  3 31  1  0  0  0  0
  4  8  2  0  0  0  0
  4 32  1  0  0  0  0
  5  6  2  0  0  0  0
  5 33  1  0  0  0  0
  6  7  1  0  0  0  0
  6  8  1  0  0  0  0
  8  9  1  0  0  0  0
  9 10  1  0  0  0  0
 10 11  1  0  0  0  0
 10 17  2  0  0  0  0
 11 12  2  0  0  0  0
 11 13  1  0  0  0  0
 13 14  1  0  0  0  0
 13 15  1  0  0  0  0
 14 34  1  0  0  0  0
 14 35  1  0  0  0  0
 14 36  1  0  0  0  0
 15 16  2  0  0  0  0
 15 18  1  0  0  0  0
 16 21  1  0  0  0  0
 17 18  1  0  0  0  0
 17 37  1  0  0  0  0
 18 19  2  0  0  0  0
 19 20  1  0  0  0  0
 19 38  1  0  0  0  0
 20 21  2  0  0  0  0
 21 22  1  0  0  0  0
 22 23  1  0  0  0  0
 22 39  1  0  0  0  0
 23 24  1  0  0  0  0
 23 25  1  0  0  0  0
 23 40  1  6  0  0  0
 24 41  1  0  0  0  0
 24 42  1  0  0  0  0
 24 43  1  0  0  0  0
 25 26  1  0  0  0  0
 25 44  1  0  0  0  0
 25 45  1  0  0  0  0
 26 27  1  0  0  0  0
 26 30  1  0  0  0  0
 27 28  2  0  0  0  0
 28 29  1  0  0  0  0
 28 46  1  0  0  0  0
 29 30  2  0  0  0  0
M  END
$$$$
