p38a_2i
 OpenBabel02232411163D
Structure written by MMmdl.
 48 51  0  0  0  0  0  0  0  0999 V2000
   34.3400   38.1330   27.0720 C   0  0  0  0  0  0  0  0  0  0  0  0
   33.3100   37.0150   26.8790 C   0  0  0  0  0  0  0  0  0  0  0  0
   31.4520   38.5360   27.0320 C   0  0  0  0  0  0  0  0  0  0  0  0
   32.3580   39.7370   27.3120 C   0  0  0  0  0  0  0  0  0  0  0  0
   36.1950   34.7420   15.7430 C   0  0  0  0  0  0  0  0  0  0  0  0
   32.0470   37.3160   27.5160 O   0  0  0  0  0  0  0  0  0  0  0  0
   34.9790   35.7260   21.2480 C   0  0  0  0  0  0  0  0  0  0  0  0
   36.6680   35.3560   16.9010 C   0  0  0  0  0  0  0  0  0  0  0  0
   33.9770   39.4300   24.1870 C   0  0  0  0  0  0  0  0  0  0  0  0
   33.8070   39.5460   26.8020 C   0  0  0  0  0  0  0  0  0  0  0  0
   34.5750   38.4920   21.6710 C   0  0  0  0  0  0  0  0  0  0  0  0
   35.1840   38.0360   20.4590 C   0  0  0  0  0  0  0  0  0  0  0  0
   34.8300   34.4460   15.6650 C   0  0  0  0  0  0  0  0  0  0  0  0
   33.9800   34.7840   16.7200 C   0  0  0  0  0  0  0  0  0  0  0  0
   34.4810   35.4050   17.8700 C   0  0  0  0  0  0  0  0  0  0  0  0
   34.4400   37.6030   22.7810 C   0  0  0  0  0  0  0  0  0  0  0  0
   34.2020   39.8460   21.8760 C   0  0  0  0  0  0  0  0  0  0  0  0
   35.5000   36.7250   20.3030 C   0  0  0  0  0  0  0  0  0  0  0  0
   35.8480   35.6780   18.0000 C   0  0  0  0  0  0  0  0  0  0  0  0
   34.4550   35.2760   23.6920 C   0  0  0  0  0  0  0  0  0  0  0  0
   37.9800   35.6040   16.9720 F   0  0  0  0  0  0  0  0  0  0  0  0
   36.4570   36.2620   19.2420 C   0  0  0  0  0  0  0  0  0  0  0  0
   33.9020   40.3250   23.0830 N   0  0  0  0  0  0  0  0  0  0  0  0
   34.8020   34.5420   21.0440 O   0  0  0  0  0  0  0  0  0  0  0  0
   34.6130   36.2370   22.5670 N   0  0  0  0  0  0  0  0  0  0  0  0
   34.1410   38.0700   24.0450 N   0  0  0  0  0  0  0  0  0  0  0  0
   33.9320   40.0640   25.4020 N   0  0  0  0  0  0  0  0  0  0  0  0
   34.6970   38.1200   28.1360 H   0  0  0  0  0  0  0  0  0  0  0  0
   35.2290   37.9250   26.4240 H   0  0  0  0  0  0  0  0  0  0  0  0
   33.1160   36.8230   25.8010 H   0  0  0  0  0  0  0  0  0  0  0  0
   33.6310   36.0890   27.4130 H   0  0  0  0  0  0  0  0  0  0  0  0
   30.5120   38.5930   27.6290 H   0  0  0  0  0  0  0  0  0  0  0  0
   31.2440   38.4410   25.9430 H   0  0  0  0  0  0  0  0  0  0  0  0
   31.9180   40.6540   26.8490 H   0  0  0  0  0  0  0  0  0  0  0  0
   32.4150   39.9160   28.4160 H   0  0  0  0  0  0  0  0  0  0  0  0
   36.8660   34.5050   14.9170 H   0  0  0  0  0  0  0  0  0  0  0  0
   34.4670   40.2700   27.3820 H   0  0  0  0  0  0  0  0  0  0  0  0
   35.4350   38.7920   19.7080 H   0  0  0  0  0  0  0  0  0  0  0  0
   32.9110   34.5700   16.6450 H   0  0  0  0  0  0  0  0  0  0  0  0
   33.7870   35.6860   18.6670 H   0  0  0  0  0  0  0  0  0  0  0  0
   34.1510   40.5350   21.0160 H   0  0  0  0  0  0  0  0  0  0  0  0
   35.0620   35.6140   24.5750 H   0  0  0  0  0  0  0  0  0  0  0  0
   33.3760   35.2080   23.9930 H   0  0  0  0  0  0  0  0  0  0  0  0
   34.8090   34.2590   23.3770 H   0  0  0  0  0  0  0  0  0  0  0  0
   33.7370   41.0960   25.3750 H   0  0  0  0  0  0  0  0  0  0  0  0
   34.4240   33.9580   14.7760 H   0  0  0  0  0  0  0  0  0  0  0  0
   37.0960   37.1430   18.9510 H   0  0  0  0  0  0  0  0  0  0  0  0
   37.1420   35.4970   19.7000 H   0  0  0  0  0  0  0  0  0  0  0  0
  1  2  1  0  0  0  0
  1 10  1  0  0  0  0
  1 28  1  0  0  0  0
  1 29  1  0  0  0  0
  2  6  1  0  0  0  0
  2 30  1  0  0  0  0
  2 31  1  0  0  0  0
  3  4  1  0  0  0  0
  3  6  1  0  0  0  0
  3 32  1  0  0  0  0
  3 33  1  0  0  0  0
  4 10  1  0  0  0  0
  4 34  1  0  0  0  0
  4 35  1  0  0  0  0
  5  8  2  0  0  0  0
  5 13  1  0  0  0  0
  5 36  1  0  0  0  0
  7 18  1  0  0  0  0
  7 24  2  0  0  0  0
  7 25  1  0  0  0  0
  8 19  1  0  0  0  0
  8 21  1  0  0  0  0
  9 23  2  0  0  0  0
  9 26  1  0  0  0  0
  9 27  1  0  0  0  0
 10 27  1  0  0  0  0
 10 37  1  0  0  0  0
 11 12  1  0  0  0  0
 11 16  1  0  0  0  0
 11 17  2  0  0  0  0
 12 18  2  0  0  0  0
 12 38  1  0  0  0  0
 13 14  2  0  0  0  0
 13 46  1  0  0  0  0
 14 15  1  0  0  0  0
 14 39  1  0  0  0  0
 15 19  2  0  0  0  0
 15 40  1  0  0  0  0
 16 25  1  0  0  0  0
 16 26  2  0  0  0  0
 17 23  1  0  0  0  0
 17 41  1  0  0  0  0
 18 22  1  0  0  0  0
 19 22  1  0  0  0  0
 20 25  1  0  0  0  0
 20 42  1  0  0  0  0
 20 43  1  0  0  0  0
 20 44  1  0  0  0  0
 22 47  1  0  0  0  0
 22 48  1  0  0  0  0
 27 45  1  0  0  0  0
M  END
$$$$
