p38a_2s
 OpenBabel02232411163D
Structure written by MMmdl.
 54 57  0  0  1  0  0  0  0  0999 V2000
   38.2520   36.4780   17.2470 C   0  0  0  0  0  0  0  0  0  0  0  0
   34.3800   35.0580   21.2700 C   0  0  0  0  0  0  0  0  0  0  0  0
   37.4690   36.0290   18.3070 C   0  0  0  0  0  0  0  0  0  0  0  0
   33.8810   39.1650   23.7850 C   0  0  0  0  0  0  0  0  0  0  0  0
   34.5620   37.9360   21.4130 C   0  0  0  0  0  0  0  0  0  0  0  0
   35.0070   37.2590   20.2250 C   0  0  0  0  0  0  0  0  0  0  0  0
   37.6070   36.6170   16.0100 C   0  0  0  0  0  0  0  0  0  0  0  0
   36.2620   36.3050   15.8040 C   0  0  0  0  0  0  0  0  0  0  0  0
   35.4990   35.8440   16.8830 C   0  0  0  0  0  0  0  0  0  0  0  0
   34.0930   37.1830   22.5300 C   0  0  0  0  0  0  0  0  0  0  0  0
   34.5940   39.3490   21.5590 C   0  0  0  0  0  0  0  0  0  0  0  0
   34.9570   35.9080   20.1900 C   0  0  0  0  0  0  0  0  0  0  0  0
   36.1090   35.6950   18.1310 C   0  0  0  0  0  0  0  0  0  0  0  0
   37.9990   35.9100   19.5160 F   0  0  0  0  0  0  0  0  0  0  0  0
   35.3950   35.0720   19.1650 O   0  0  0  0  0  0  0  0  0  0  0  0
   34.2710   39.9750   22.7020 N   0  0  0  0  0  0  0  0  0  0  0  0
   34.2280   33.8580   21.2110 O   0  0  0  0  0  0  0  0  0  0  0  0
   33.9320   35.7880   22.4300 N   0  0  0  0  0  0  0  0  0  0  0  0
   33.7780   37.7890   23.7190 N   0  0  0  0  0  0  0  0  0  0  0  0
   33.5270   39.7950   24.9590 N   0  0  0  0  0  0  0  0  0  0  0  0
   39.3050   36.7470   17.3780 H   0  0  0  0  0  0  0  0  0  0  0  0
   35.3850   37.8660   19.3980 H   0  0  0  0  0  0  0  0  0  0  0  0
   35.7940   36.4330   14.8250 H   0  0  0  0  0  0  0  0  0  0  0  0
   34.4360   35.6220   16.7420 H   0  0  0  0  0  0  0  0  0  0  0  0
   34.8940   39.9820   20.7080 H   0  0  0  0  0  0  0  0  0  0  0  0
   33.6900   40.8160   25.0600 H   0  0  0  0  0  0  0  0  0  0  0  0
   38.3060   37.1110   14.9910 F   0  0  0  0  0  0  0  0  0  0  0  0
   32.2190   39.1110   28.4820 C   0  0  0  0  0  0  0  0  0  0  0  0
   32.3180   39.7800   27.1050 C   0  0  0  0  0  0  0  0  0  0  0  0
   33.3640   39.0450   26.2410 C   0  0  0  0  0  0  0  0  0  0  0  0
   34.7140   38.9590   26.9900 C   0  0  0  0  0  0  0  0  0  0  0  0
   34.5010   38.3340   28.3740 C   0  0  0  0  0  0  0  0  0  0  0  0
   33.5070   39.0550   29.1380 O   0  0  0  0  0  0  0  0  0  0  0  0
   31.8110   38.0780   28.3940 H   0  0  0  0  0  0  0  0  0  0  0  0
   31.6200   39.7280   29.1900 H   0  0  0  0  0  0  0  0  0  0  0  0
   32.6120   40.8490   27.2300 H   0  0  0  0  0  0  0  0  0  0  0  0
   31.3260   39.7450   26.5960 H   0  0  0  0  0  0  0  0  0  0  0  0
   32.9900   38.0070   26.0160 H   0  0  0  0  0  0  0  0  0  0  0  0
   35.4310   38.3310   26.4090 H   0  0  0  0  0  0  0  0  0  0  0  0
   35.1490   39.9810   27.0980 H   0  0  0  0  0  0  0  0  0  0  0  0
   34.1830   37.2680   28.2840 H   0  0  0  0  0  0  0  0  0  0  0  0
   35.4100   38.4380   29.0090 H   0  0  0  0  0  0  0  0  0  0  0  0
   33.3680   35.0310   23.5870 C   0  0  0  0  0  0  0  0  0  0  0  0
   32.5170   35.6250   24.0330 H   0  0  0  0  0  0  0  0  0  0  0  0
   32.9630   34.0520   23.2130 H   0  0  0  0  0  0  0  0  0  0  0  0
   34.4180   34.7720   24.6940 C   0  0  2  0  0  0  0  0  0  0  0  0
   35.5390   34.0630   24.1590 O   0  0  0  0  0  0  0  0  0  0  0  0
   35.3550   33.0870   24.1550 H   0  0  0  0  0  0  0  0  0  0  0  0
   33.7870   34.0170   25.8890 C   0  0  0  0  0  0  0  0  0  0  0  0
   32.9130   34.5770   26.3030 H   0  0  0  0  0  0  0  0  0  0  0  0
   34.5510   33.8400   26.6820 H   0  0  0  0  0  0  0  0  0  0  0  0
   34.8790   35.7270   25.0570 H   0  0  0  0  0  0  0  0  0  0  0  0
   33.2210   32.7570   25.4920 O   0  0  0  0  0  0  0  0  0  0  0  0
   33.9800   32.1520   25.1950 H   0  0  0  0  0  0  0  0  0  0  0  0
  1  3  2  0  0  0  0
  1  7  1  0  0  0  0
  1 21  1  0  0  0  0
  2 12  1  0  0  0  0
  2 17  2  0  0  0  0
  2 18  1  0  0  0  0
  3 13  1  0  0  0  0
  3 14  1  0  0  0  0
  4 16  2  0  0  0  0
  4 19  1  0  0  0  0
  4 20  1  0  0  0  0
  5  6  1  0  0  0  0
  5 10  1  0  0  0  0
  5 11  2  0  0  0  0
  6 12  2  0  0  0  0
  6 22  1  0  0  0  0
  7  8  2  0  0  0  0
  7 27  1  0  0  0  0
  8  9  1  0  0  0  0
  8 23  1  0  0  0  0
  9 13  2  0  0  0  0
  9 24  1  0  0  0  0
 10 18  1  0  0  0  0
 10 19  2  0  0  0  0
 11 16  1  0  0  0  0
 11 25  1  0  0  0  0
 12 15  1  0  0  0  0
 13 15  1  0  0  0  0
 18 43  1  0  0  0  0
 20 26  1  0  0  0  0
 20 30  1  0  0  0  0
 28 29  1  0  0  0  0
 28 33  1  0  0  0  0
 28 34  1  0  0  0  0
 28 35  1  0  0  0  0
 29 30  1  0  0  0  0
 29 36  1  0  0  0  0
 29 37  1  0  0  0  0
 30 31  1  0  0  0  0
 30 38  1  0  0  0  0
 31 32  1  0  0  0  0
 31 39  1  0  0  0  0
 31 40  1  0  0  0  0
 32 33  1  0  0  0  0
 32 41  1  0  0  0  0
 32 42  1  0  0  0  0
 43 44  1  0  0  0  0
 43 45  1  0  0  0  0
 43 46  1  0  0  0  0
 46 47  1  0  0  0  0
 46 49  1  0  0  0  0
 46 52  1  1  0  0  0
 47 48  1  0  0  0  0
 49 50  1  0  0  0  0
 49 51  1  0  0  0  0
 49 53  1  0  0  0  0
 53 54  1  0  0  0  0
M  END
$$$$
