p38a_2aa
 OpenBabel02232411163D
Structure written by MMmdl.
 43 45  0  0  0  0  0  0  0  0999 V2000
   38.2800   36.5340   17.1890 C   0  0  0  0  0  0  0  0  0  0  0  0
   34.5930   35.1400   21.2990 C   0  0  0  0  0  0  0  0  0  0  0  0
   37.4930   36.0960   18.2500 C   0  0  0  0  0  0  0  0  0  0  0  0
   33.9750   39.2320   23.8040 C   0  0  0  0  0  0  0  0  0  0  0  0
   33.5460   39.1840   26.2870 C   0  0  0  0  0  0  0  0  0  0  0  0
   34.6460   38.0180   21.4220 C   0  0  0  0  0  0  0  0  0  0  0  0
   35.0320   37.3560   20.2040 C   0  0  0  0  0  0  0  0  0  0  0  0
   37.6340   36.6800   15.9530 C   0  0  0  0  0  0  0  0  0  0  0  0
   36.2840   36.3840   15.7500 C   0  0  0  0  0  0  0  0  0  0  0  0
   35.5170   35.9360   16.8310 C   0  0  0  0  0  0  0  0  0  0  0  0
   34.3360   37.2490   22.5840 C   0  0  0  0  0  0  0  0  0  0  0  0
   34.5670   39.4300   21.5440 C   0  0  0  0  0  0  0  0  0  0  0  0
   35.0340   36.0050   20.1710 C   0  0  0  0  0  0  0  0  0  0  0  0
   36.1270   35.7860   18.0790 C   0  0  0  0  0  0  0  0  0  0  0  0
   34.0440   35.0540   23.7550 C   0  0  0  0  0  0  0  0  0  0  0  0
   38.0260   35.9660   19.4580 F   0  0  0  0  0  0  0  0  0  0  0  0
   35.4010   35.1770   19.1120 O   0  0  0  0  0  0  0  0  0  0  0  0
   34.2520   40.0480   22.6940 N   0  0  0  0  0  0  0  0  0  0  0  0
   34.4440   33.9400   21.2540 O   0  0  0  0  0  0  0  0  0  0  0  0
   34.3350   35.8490   22.5280 N   0  0  0  0  0  0  0  0  0  0  0  0
   34.0140   37.8530   23.7760 N   0  0  0  0  0  0  0  0  0  0  0  0
   33.5540   39.8630   24.9590 N   0  0  0  0  0  0  0  0  0  0  0  0
   39.3360   36.7880   17.3190 H   0  0  0  0  0  0  0  0  0  0  0  0
   33.7980   40.2200   27.4160 C   0  0  0  0  0  0  0  0  0  0  0  0
   35.3180   37.9730   19.3490 H   0  0  0  0  0  0  0  0  0  0  0  0
   35.8160   36.5120   14.7710 H   0  0  0  0  0  0  0  0  0  0  0  0
   34.4520   35.7230   16.6930 H   0  0  0  0  0  0  0  0  0  0  0  0
   34.7660   40.0700   20.6680 H   0  0  0  0  0  0  0  0  0  0  0  0
   34.6070   35.4740   24.6310 H   0  0  0  0  0  0  0  0  0  0  0  0
   32.9440   35.0800   23.9750 H   0  0  0  0  0  0  0  0  0  0  0  0
   34.3600   33.9880   23.6040 H   0  0  0  0  0  0  0  0  0  0  0  0
   33.5740   40.9000   24.9890 H   0  0  0  0  0  0  0  0  0  0  0  0
   38.3350   37.1660   14.9320 F   0  0  0  0  0  0  0  0  0  0  0  0
   32.1730   38.4930   26.5120 C   0  0  0  0  0  0  0  0  0  0  0  0
   32.1830   37.1370   26.0590 O   0  0  0  0  0  0  0  0  0  0  0  0
   32.6410   37.0840   25.1790 H   0  0  0  0  0  0  0  0  0  0  0  0
   31.9520   38.3990   27.6040 H   0  0  0  0  0  0  0  0  0  0  0  0
   31.3590   39.0440   25.9830 H   0  0  0  0  0  0  0  0  0  0  0  0
   34.9630   41.0150   27.1450 O   0  0  0  0  0  0  0  0  0  0  0  0
   32.9200   40.8920   27.5580 H   0  0  0  0  0  0  0  0  0  0  0  0
   34.0510   39.6870   28.3660 H   0  0  0  0  0  0  0  0  0  0  0  0
   34.6720   41.7590   26.5270 H   0  0  0  0  0  0  0  0  0  0  0  0
   34.3620   38.4070   26.3300 H   0  0  0  0  0  0  0  0  0  0  0  0
  1  3  2  0  0  0  0
  1  8  1  0  0  0  0
  1 23  1  0  0  0  0
  2 13  1  0  0  0  0
  2 19  2  0  0  0  0
  2 20  1  0  0  0  0
  3 14  1  0  0  0  0
  3 16  1  0  0  0  0
  4 18  2  0  0  0  0
  4 21  1  0  0  0  0
  4 22  1  0  0  0  0
  5 22  1  0  0  0  0
  5 24  1  0  0  0  0
  5 34  1  0  0  0  0
  5 43  1  0  0  0  0
  6  7  1  0  0  0  0
  6 11  1  0  0  0  0
  6 12  2  0  0  0  0
  7 13  2  0  0  0  0
  7 25  1  0  0  0  0
  8  9  2  0  0  0  0
  8 33  1  0  0  0  0
  9 10  1  0  0  0  0
  9 26  1  0  0  0  0
 10 14  2  0  0  0  0
 10 27  1  0  0  0  0
 11 20  1  0  0  0  0
 11 21  2  0  0  0  0
 12 18  1  0  0  0  0
 12 28  1  0  0  0  0
 13 17  1  0  0  0  0
 14 17  1  0  0  0  0
 15 20  1  0  0  0  0
 15 29  1  0  0  0  0
 15 30  1  0  0  0  0
 15 31  1  0  0  0  0
 22 32  1  0  0  0  0
 24 39  1  0  0  0  0
 24 40  1  0  0  0  0
 24 41  1  0  0  0  0
 34 35  1  0  0  0  0
 34 37  1  0  0  0  0
 34 38  1  0  0  0  0
 35 36  1  0  0  0  0
 39 42  1  0  0  0  0
M  END
$$$$
