1b
 OpenBabel02232411173D

 52 54  0  0  1  0  0  0  0  0999 V2000
   18.1440  -13.0680   21.5130 N   0  0  0  0  0  0  0  0  0  0  0  0
   17.9000  -11.7240   20.9030 C   0  0  2  0  0  0  0  0  0  0  0  0
   17.2470  -13.6270   22.3840 C   0  0  0  0  0  0  0  0  0  0  0  0
   16.2320  -13.0240   22.7260 O   0  0  0  0  0  0  0  0  0  0  0  0
   16.4780  -11.6390   20.2840 C   0  0  0  0  0  0  0  0  0  0  0  0
   15.9900  -12.5230   19.5960 O   0  0  0  0  0  0  0  0  0  0  0  0
   18.9860  -11.5630   19.8210 C   0  0  0  0  0  0  0  0  0  0  0  0
   17.5490  -15.0460   22.9410 C   0  0  2  0  0  0  0  0  0  0  0  0
   15.8400  -10.4320   20.5150 N   0  0  0  0  0  0  0  0  0  0  0  0
   20.0470  -12.6470   20.0790 C   0  0  0  0  0  0  0  0  0  0  0  0
   16.2410  -15.8580   22.8890 N   0  3  0  0  0  0  0  0  0  0  0  0
   18.0380  -14.9970   24.4020 C   0  0  0  0  0  0  0  0  0  0  0  0
   14.4440  -10.1530   20.1000 C   0  0  0  0  0  0  0  0  0  0  0  0
   19.3900  -13.7060   20.9850 C   0  0  0  0  0  0  0  0  0  0  0  0
   19.4820  -14.5720   24.5250 C   0  0  0  0  0  0  0  0  0  0  0  0
   13.4220  -10.6880   21.0750 C   0  0  0  0  0  0  0  0  0  0  0  0
   19.8160  -13.4110   25.2310 C   0  0  0  0  0  0  0  0  0  0  0  0
   12.8680  -11.9610   20.8850 C   0  0  0  0  0  0  0  0  0  0  0  0
   21.1540  -13.0260   25.3700 C   0  0  0  0  0  0  0  0  0  0  0  0
   11.8870  -12.4390   21.7590 C   0  0  0  0  0  0  0  0  0  0  0  0
   22.1710  -13.8210   24.8350 C   0  0  0  0  0  0  0  0  0  0  0  0
   11.4310  -11.6420   22.8120 C   0  0  0  0  0  0  0  0  0  0  0  0
   21.8420  -14.9990   24.1520 C   0  0  0  0  0  0  0  0  0  0  0  0
   12.0110  -10.3850   23.0000 C   0  0  0  0  0  0  0  0  0  0  0  0
   20.5060  -15.3710   23.9910 C   0  0  0  0  0  0  0  0  0  0  0  0
   13.0040   -9.8920   22.1520 C   0  0  0  0  0  0  0  0  0  0  0  0
   18.0380  -10.9460   21.7050 H   0  0  0  0  0  0  0  0  0  0  0  0
   18.5580  -11.6900   18.8000 H   0  0  0  0  0  0  0  0  0  0  0  0
   19.4370  -10.5540   19.9120 H   0  0  0  0  0  0  0  0  0  0  0  0
   18.2920  -15.6170   22.3110 H   0  0  0  0  0  0  0  0  0  0  0  0
   16.2850   -9.7260   21.1290 H   0  0  0  0  0  0  0  0  0  0  0  0
   20.3780  -13.1170   19.1220 H   0  0  0  0  0  0  0  0  0  0  0  0
   20.9390  -12.2110   20.5870 H   0  0  0  0  0  0  0  0  0  0  0  0
   16.4170  -16.8300   23.2820 H   0  0  0  0  0  0  0  0  0  0  0  0
   15.4850  -15.3690   23.4690 H   0  0  0  0  0  0  0  0  0  0  0  0
   15.9110  -15.9680   21.8900 H   0  0  0  0  0  0  0  0  0  0  0  0
   17.3750  -14.3190   24.9970 H   0  0  0  0  0  0  0  0  0  0  0  0
   17.9600  -16.0310   24.8450 H   0  0  0  0  0  0  0  0  0  0  0  0
   14.3530   -9.0330   20.0170 H   0  0  0  0  0  0  0  0  0  0  0  0
   14.2750  -10.5950   19.0770 H   0  0  0  0  0  0  0  0  0  0  0  0
   20.0650  -13.9790   21.8350 H   0  0  0  0  0  0  0  0  0  0  0  0
   19.1300  -14.6220   20.3950 H   0  0  0  0  0  0  0  0  0  0  0  0
   19.0350  -12.8150   25.6940 H   0  0  0  0  0  0  0  0  0  0  0  0
   13.1930  -12.5920   20.0530 H   0  0  0  0  0  0  0  0  0  0  0  0
   21.3800  -12.1000   25.9040 H   0  0  0  0  0  0  0  0  0  0  0  0
   11.4750  -13.4430   21.6220 H   0  0  0  0  0  0  0  0  0  0  0  0
   23.2210  -13.5380   24.9540 H   0  0  0  0  0  0  0  0  0  0  0  0
   22.6240  -15.6440   23.7410 H   0  0  0  0  0  0  0  0  0  0  0  0
   11.4940   -9.4300   24.3350 Cl  0  0  0  0  0  0  0  0  0  0  0  0
   20.2570  -16.2930   23.4580 H   0  0  0  0  0  0  0  0  0  0  0  0
   13.4430   -8.9070   22.3210 H   0  0  0  0  0  0  0  0  0  0  0  0
   10.6350  -12.0070   23.4680 H   0  0  0  0  0  0  0  0  0  0  0  0
  1  2  1  0  0  0  0
  1 14  1  0  0  0  0
  1  3  1  0  0  0  0
  2  5  1  0  0  0  0
  2  7  1  0  0  0  0
  2 27  1  1  0  0  0
  3  8  1  0  0  0  0
  3  4  2  0  0  0  0
  5  6  2  0  0  0  0
  5  9  1  0  0  0  0
  7 10  1  0  0  0  0
  7 28  1  0  0  0  0
  7 29  1  0  0  0  0
  8 11  1  0  0  0  0
  8 12  1  0  0  0  0
  8 30  1  6  0  0  0
  9 13  1  0  0  0  0
  9 31  1  0  0  0  0
 10 14  1  0  0  0  0
 10 32  1  0  0  0  0
 10 33  1  0  0  0  0
 11 34  1  0  0  0  0
 11 35  1  0  0  0  0
 11 36  1  0  0  0  0
 12 15  1  0  0  0  0
 12 37  1  0  0  0  0
 12 38  1  0  0  0  0
 13 16  1  0  0  0  0
 13 39  1  0  0  0  0
 13 40  1  0  0  0  0
 14 41  1  0  0  0  0
 14 42  1  0  0  0  0
 15 17  2  0  0  0  0
 15 25  1  0  0  0  0
 16 18  2  0  0  0  0
 16 26  1  0  0  0  0
 17 19  1  0  0  0  0
 17 43  1  0  0  0  0
 18 20  1  0  0  0  0
 18 44  1  0  0  0  0
 19 21  2  0  0  0  0
 19 45  1  0  0  0  0
 20 22  2  0  0  0  0
 20 46  1  0  0  0  0
 21 23  1  0  0  0  0
 21 47  1  0  0  0  0
 22 24  1  0  0  0  0
 22 52  1  0  0  0  0
 23 25  2  0  0  0  0
 23 48  1  0  0  0  0
 24 26  2  0  0  0  0
 24 49  1  0  0  0  0
 25 50  1  0  0  0  0
 26 51  1  0  0  0  0
M  CHG  1  11   1
M  END
$$$$
