CAT-4j
                    3D
 Schrodinger Suite 2022-3.
 45 48  0  0  1  0  0  0  0  0999 V2000
   11.7150   -2.5920    1.3650 C   0  0  0  0  0  0  0  0  0  0  0  0
   13.0100   -2.8840    0.7170 N   0  0  0  0  0  0  0  0  0  0  0  0
   14.2260   -2.7530    1.3950 C   0  0  0  0  0  0  0  0  0  0  0  0
   14.3840   -2.6250    2.7420 N   0  0  0  0  0  0  0  0  0  0  0  0
   15.2780   -2.8490    0.4960 N   0  3  0  0  0  0  0  0  0  0  0  0
   14.7960   -3.2360   -0.8880 C   0  0  2  0  0  0  0  0  0  0  0  0
   15.2180   -4.6620   -1.1900 C   0  0  0  0  0  0  0  0  0  0  0  0
   16.5400   -5.0490   -0.9140 C   0  0  0  0  0  0  0  0  0  0  0  0
   16.9250   -6.3830   -1.0580 C   0  0  0  0  0  0  0  0  0  0  0  0
   16.0000   -7.3380   -1.4910 C   0  0  0  0  0  0  0  0  0  0  0  0
   14.7050   -6.9420   -1.8380 C   0  0  0  0  0  0  0  0  0  0  0  0
   14.3130   -5.6070   -1.6920 C   0  0  0  0  0  0  0  0  0  0  0  0
   15.2100   -2.1700   -1.8870 C   0  0  0  0  0  0  0  0  0  0  0  0
   15.8010   -2.5030   -3.1090 C   0  0  0  0  0  0  0  0  0  0  0  0
   16.0840   -1.4890   -4.0330 C   0  0  0  0  0  0  0  0  0  0  0  0
   15.7760   -0.1580   -3.7550 C   0  0  0  0  0  0  0  0  0  0  0  0
   15.1860    0.1840   -2.5230 C   0  0  0  0  0  0  0  0  0  0  0  0
   14.8290    1.5810   -2.2110 C   0  0  0  0  0  0  0  0  0  0  0  0
   15.2870    2.2010   -1.0370 C   0  0  0  0  0  0  0  0  0  0  0  0
   14.9080    3.5170   -0.7650 C   0  0  0  0  0  0  0  0  0  0  0  0
   14.0610    4.1810   -1.6680 C   0  0  0  0  0  0  0  0  0  0  0  0
   13.6070    3.5930   -2.8080 N   0  0  0  0  0  0  0  0  0  0  0  0
   13.9920    2.3210   -3.0770 C   0  0  0  0  0  0  0  0  0  0  0  0
   14.9160   -0.8270   -1.5930 C   0  0  0  0  0  0  0  0  0  0  0  0
   13.2380   -3.1230   -0.7150 C   0  0  0  0  0  0  0  0  0  0  0  0
   12.3440   -3.1820   -1.4970 O   0  0  0  0  0  0  0  0  0  0  0  0
   10.8810   -3.0120    0.7410 H   0  0  0  0  0  0  0  0  0  0  0  0
   11.6780   -3.0680    2.3830 H   0  0  0  0  0  0  0  0  0  0  0  0
   11.5940   -1.4820    1.4690 H   0  0  0  0  0  0  0  0  0  0  0  0
   15.3580   -2.5070    3.1320 H   0  0  0  0  0  0  0  0  0  0  0  0
   16.2480   -3.0580    0.8450 H   0  0  0  0  0  0  0  0  0  0  0  0
   17.2710   -4.3120   -0.5740 H   0  0  0  0  0  0  0  0  0  0  0  0
   17.9470   -6.6770   -0.8040 H   0  0  0  0  0  0  0  0  0  0  0  0
   16.2850   -8.3920   -1.5400 H   0  0  0  0  0  0  0  0  0  0  0  0
   13.9880   -7.6800   -2.2120 H   0  0  0  0  0  0  0  0  0  0  0  0
   13.2980   -5.3220   -1.9800 H   0  0  0  0  0  0  0  0  0  0  0  0
   16.0420   -3.5420   -3.3470 H   0  0  0  0  0  0  0  0  0  0  0  0
   16.5540   -1.7420   -4.9880 H   0  0  0  0  0  0  0  0  0  0  0  0
   16.0050    0.6180   -4.4940 H   0  0  0  0  0  0  0  0  0  0  0  0
   15.9280    1.6530   -0.3420 H   0  0  0  0  0  0  0  0  0  0  0  0
   15.2630    4.0150    0.1410 H   0  0  0  0  0  0  0  0  0  0  0  0
   13.7260    5.2140   -1.4750 H   0  0  0  0  0  0  0  0  0  0  0  0
   13.6140    1.8700   -4.0100 H   0  0  0  0  0  0  0  0  0  0  0  0
   14.4780   -0.5710   -0.6290 H   0  0  0  0  0  0  0  0  0  0  0  0
   13.6530   -2.1710    3.3420 H   0  0  0  0  0  0  0  0  0  0  0  0
  1  2  1  0  0  0  0
  1 27  1  0  0  0  0
  1 28  1  0  0  0  0
  1 29  1  0  0  0  0
  2  3  1  0  0  0  0
  2 25  1  0  0  0  0
  3  4  1  0  0  0  0
  3  5  2  0  0  0  0
  4 30  1  0  0  0  0
  4 45  1  0  0  0  0
  5  6  1  0  0  0  0
  5 31  1  0  0  0  0
  6  7  1  0  0  0  0
  6 13  1  0  0  0  0
  6 25  1  0  0  0  0
  7  8  2  0  0  0  0
  7 12  1  0  0  0  0
  8  9  1  0  0  0  0
  8 32  1  0  0  0  0
  9 10  2  0  0  0  0
  9 33  1  0  0  0  0
 10 11  1  0  0  0  0
 10 34  1  0  0  0  0
 11 12  2  0  0  0  0
 11 35  1  0  0  0  0
 12 36  1  0  0  0  0
 13 14  2  0  0  0  0
 13 24  1  0  0  0  0
 14 15  1  0  0  0  0
 14 37  1  0  0  0  0
 15 16  2  0  0  0  0
 15 38  1  0  0  0  0
 16 17  1  0  0  0  0
 16 39  1  0  0  0  0
 17 18  1  0  0  0  0
 17 24  2  0  0  0  0
 18 19  2  0  0  0  0
 18 23  1  0  0  0  0
 19 20  1  0  0  0  0
 19 40  1  0  0  0  0
 20 21  2  0  0  0  0
 20 41  1  0  0  0  0
 21 22  1  0  0  0  0
 21 42  1  0  0  0  0
 22 23  2  0  0  0  0
 23 43  1  0  0  0  0
 24 44  1  0  0  0  0
 25 26  2  0  0  0  0
M  CHG  1   5   1
M  END
$$$$
