p38a_2r
 OpenBabel02232411163D
Structure written by MMmdl.
 56 59  0  0  0  0  0  0  0  0999 V2000
   36.3460   35.9020   15.9830 C   0  0  0  0  0  0  0  0  0  0  0  0
   34.5820   34.9880   21.6130 C   0  0  0  0  0  0  0  0  0  0  0  0
   35.5830   35.5000   17.0730 C   0  0  0  0  0  0  0  0  0  0  0  0
   34.2420   39.0300   24.2570 C   0  0  0  0  0  0  0  0  0  0  0  0
   34.7970   37.8450   21.8270 C   0  0  0  0  0  0  0  0  0  0  0  0
   35.0900   37.2130   20.5710 C   0  0  0  0  0  0  0  0  0  0  0  0
   37.6340   36.3790   16.2650 C   0  0  0  0  0  0  0  0  0  0  0  0
   38.1770   36.4180   17.5510 C   0  0  0  0  0  0  0  0  0  0  0  0
   37.3790   36.0350   18.6350 C   0  0  0  0  0  0  0  0  0  0  0  0
   34.5080   37.0590   22.9820 C   0  0  0  0  0  0  0  0  0  0  0  0
   34.7860   39.2590   21.9870 C   0  0  0  0  0  0  0  0  0  0  0  0
   35.0080   35.8650   20.4910 C   0  0  0  0  0  0  0  0  0  0  0  0
   36.0780   35.5840   18.3930 C   0  0  0  0  0  0  0  0  0  0  0  0
   34.3630   35.0080   16.9000 F   0  0  0  0  0  0  0  0  0  0  0  0
   35.2150   35.0690   19.3630 O   0  0  0  0  0  0  0  0  0  0  0  0
   34.5160   39.8630   23.1510 N   0  0  0  0  0  0  0  0  0  0  0  0
   34.3480   33.8050   21.5220 O   0  0  0  0  0  0  0  0  0  0  0  0
   34.4660   35.6560   22.8880 N   0  0  0  0  0  0  0  0  0  0  0  0
   34.2510   37.6490   24.1980 N   0  0  0  0  0  0  0  0  0  0  0  0
   33.9020   39.6410   25.4370 N   0  0  0  0  0  0  0  0  0  0  0  0
   35.9570   35.8760   14.9620 H   0  0  0  0  0  0  0  0  0  0  0  0
   35.3810   37.8450   19.7270 H   0  0  0  0  0  0  0  0  0  0  0  0
   39.1990   36.7700   17.7120 H   0  0  0  0  0  0  0  0  0  0  0  0
   37.7700   36.1120   19.6510 H   0  0  0  0  0  0  0  0  0  0  0  0
   35.0000   39.9080   21.1190 H   0  0  0  0  0  0  0  0  0  0  0  0
   33.9370   40.6790   25.5000 H   0  0  0  0  0  0  0  0  0  0  0  0
   38.3600   36.8510   15.2530 F   0  0  0  0  0  0  0  0  0  0  0  0
   33.6960   40.7640   28.4390 C   0  0  0  0  0  0  0  0  0  0  0  0
   32.7790   39.8330   27.6360 C   0  0  0  0  0  0  0  0  0  0  0  0
   33.5490   38.8920   26.6850 C   0  0  0  0  0  0  0  0  0  0  0  0
   34.7860   38.2850   27.3750 C   0  0  0  0  0  0  0  0  0  0  0  0
   35.5980   39.3250   28.1490 C   0  0  0  0  0  0  0  0  0  0  0  0
   34.7680   40.0500   29.0870 O   0  0  0  0  0  0  0  0  0  0  0  0
   33.1510   41.2160   29.3000 H   0  0  0  0  0  0  0  0  0  0  0  0
   34.1380   41.5480   27.7840 H   0  0  0  0  0  0  0  0  0  0  0  0
   32.0580   40.4580   27.0530 H   0  0  0  0  0  0  0  0  0  0  0  0
   32.1890   39.1940   28.3400 H   0  0  0  0  0  0  0  0  0  0  0  0
   32.8590   38.0500   26.3910 H   0  0  0  0  0  0  0  0  0  0  0  0
   34.4260   37.4890   28.0770 H   0  0  0  0  0  0  0  0  0  0  0  0
   35.4420   37.7870   26.6190 H   0  0  0  0  0  0  0  0  0  0  0  0
   36.3400   38.8410   28.8240 H   0  0  0  0  0  0  0  0  0  0  0  0
   36.0760   40.0540   27.4580 H   0  0  0  0  0  0  0  0  0  0  0  0
   34.3470   34.8210   24.1180 C   0  0  0  0  0  0  0  0  0  0  0  0
   34.8470   33.8310   23.9240 H   0  0  0  0  0  0  0  0  0  0  0  0
   34.9120   35.3310   24.9490 H   0  0  0  0  0  0  0  0  0  0  0  0
   32.8820   34.5330   24.6020 C   0  0  0  0  0  0  0  0  0  0  0  0
   32.0940   35.7370   24.5950 O   0  0  0  0  0  0  0  0  0  0  0  0
   32.6450   36.4950   24.9020 H   0  0  0  0  0  0  0  0  0  0  0  0
   32.9680   34.0060   26.0440 C   0  0  0  0  0  0  0  0  0  0  0  0
   33.5340   34.7060   26.7030 H   0  0  0  0  0  0  0  0  0  0  0  0
   31.9500   33.8820   26.4770 H   0  0  0  0  0  0  0  0  0  0  0  0
   33.4820   33.0170   26.0690 H   0  0  0  0  0  0  0  0  0  0  0  0
   32.1260   33.5740   23.6810 C   0  0  0  0  0  0  0  0  0  0  0  0
   31.1500   33.2910   24.1400 H   0  0  0  0  0  0  0  0  0  0  0  0
   31.9270   34.0520   22.6990 H   0  0  0  0  0  0  0  0  0  0  0  0
   32.7250   32.6460   23.5310 H   0  0  0  0  0  0  0  0  0  0  0  0
  1  3  2  0  0  0  0
  1  7  1  0  0  0  0
  1 21  1  0  0  0  0
  2 12  1  0  0  0  0
  2 17  2  0  0  0  0
  2 18  1  0  0  0  0
  3 13  1  0  0  0  0
  3 14  1  0  0  0  0
  4 16  2  0  0  0  0
  4 19  1  0  0  0  0
  4 20  1  0  0  0  0
  5  6  1  0  0  0  0
  5 10  1  0  0  0  0
  5 11  2  0  0  0  0
  6 12  2  0  0  0  0
  6 22  1  0  0  0  0
  7  8  2  0  0  0  0
  7 27  1  0  0  0  0
  8  9  1  0  0  0  0
  8 23  1  0  0  0  0
  9 13  2  0  0  0  0
  9 24  1  0  0  0  0
 10 18  1  0  0  0  0
 10 19  2  0  0  0  0
 11 16  1  0  0  0  0
 11 25  1  0  0  0  0
 12 15  1  0  0  0  0
 13 15  1  0  0  0  0
 18 43  1  0  0  0  0
 20 26  1  0  0  0  0
 20 30  1  0  0  0  0
 28 29  1  0  0  0  0
 28 33  1  0  0  0  0
 28 34  1  0  0  0  0
 28 35  1  0  0  0  0
 29 30  1  0  0  0  0
 29 36  1  0  0  0  0
 29 37  1  0  0  0  0
 30 31  1  0  0  0  0
 30 38  1  0  0  0  0
 31 32  1  0  0  0  0
 31 39  1  0  0  0  0
 31 40  1  0  0  0  0
 32 33  1  0  0  0  0
 32 41  1  0  0  0  0
 32 42  1  0  0  0  0
 43 44  1  0  0  0  0
 43 45  1  0  0  0  0
 43 46  1  0  0  0  0
 46 47  1  0  0  0  0
 46 49  1  0  0  0  0
 46 53  1  0  0  0  0
 47 48  1  0  0  0  0
 49 50  1  0  0  0  0
 49 51  1  0  0  0  0
 49 52  1  0  0  0  0
 53 54  1  0  0  0  0
 53 55  1  0  0  0  0
 53 56  1  0  0  0  0
M  END
$$$$
