26.pdb
 OpenBabel02232411163D

 43 46  0  0  0  0  0  0  0  0999 V2000
    3.7340  -49.9300    6.1740 O   0  5  0  0  0  0  0  0  0  0  0  0
    2.9920  -49.0360    6.6050 C   0  0  0  0  0  0  0  0  0  0  0  0
    3.2950  -47.9760    7.1590 O   0  0  0  0  0  0  0  0  0  0  0  0
    1.4780  -49.3570    6.4340 C   0  0  0  0  0  0  0  0  0  0  0  0
    1.2150  -50.6810    6.8480 O   0  0  0  0  0  0  0  0  0  0  0  0
   -0.1470  -50.8950    6.6200 C   0  0  0  0  0  0  0  0  0  0  0  0
   -0.8660  -52.0430    6.9330 C   0  0  0  0  0  0  0  0  0  0  0  0
   -0.4220  -52.9230    7.3990 H   0  0  0  0  0  0  0  0  0  0  0  0
   -2.2290  -52.0170    6.6250 C   0  0  0  0  0  0  0  0  0  0  0  0
   -2.8570  -52.8760    6.8710 H   0  0  0  0  0  0  0  0  0  0  0  0
   -2.8180  -50.9010    6.0050 C   0  0  0  0  0  0  0  0  0  0  0  0
   -3.8850  -50.9210    5.7790 H   0  0  0  0  0  0  0  0  0  0  0  0
   -2.0750  -49.7640    5.6790 C   0  0  0  0  0  0  0  0  0  0  0  0
   -2.5610  -48.9390    5.1620 H   0  0  0  0  0  0  0  0  0  0  0  0
   -0.7220  -49.7290    6.0220 C   0  0  0  0  0  0  0  0  0  0  0  0
    0.3490  -48.7440    5.9520 C   0  0  0  0  0  0  0  0  0  0  0  0
    0.1640  -47.3410    5.5000 C   0  0  0  0  0  0  0  0  0  0  0  0
    1.1400  -46.8990    5.1790 H   0  0  0  0  0  0  0  0  0  0  0  0
   -0.5350  -47.3300    4.6230 H   0  0  0  0  0  0  0  0  0  0  0  0
   -0.4260  -46.4370    6.6020 C   0  0  0  0  0  0  0  0  0  0  0  0
    0.1600  -46.5410    7.5430 H   0  0  0  0  0  0  0  0  0  0  0  0
   -0.3690  -45.3700    6.2800 H   0  0  0  0  0  0  0  0  0  0  0  0
   -1.8910  -46.7780    6.8780 C   0  0  0  0  0  0  0  0  0  0  0  0
   -2.5060  -46.8140    5.9530 H   0  0  0  0  0  0  0  0  0  0  0  0
   -2.0180  -47.6850    7.5050 H   0  0  0  0  0  0  0  0  0  0  0  0
   -2.3790  -45.6320    7.6700 O   0  0  0  0  0  0  0  0  0  0  0  0
   -3.7240  -45.7020    7.9900 C   0  0  0  0  0  0  0  0  0  0  0  0
   -4.6550  -45.0160    7.1320 C   0  0  0  0  0  0  0  0  0  0  0  0
   -6.0170  -44.9710    7.5290 C   0  0  0  0  0  0  0  0  0  0  0  0
   -6.4100  -45.5700    8.7670 C   0  0  0  0  0  0  0  0  0  0  0  0
   -7.4520  -45.4980    9.0730 H   0  0  0  0  0  0  0  0  0  0  0  0
   -5.4960  -46.2500    9.5340 C   0  0  0  0  0  0  0  0  0  0  0  0
   -5.8160  -46.7480   10.4510 H   0  0  0  0  0  0  0  0  0  0  0  0
   -4.1320  -46.3340    9.1450 C   0  0  0  0  0  0  0  0  0  0  0  0
   -3.4310  -46.8770    9.7780 H   0  0  0  0  0  0  0  0  0  0  0  0
   -6.9740  -44.3750    6.6480 C   0  0  0  0  0  0  0  0  0  0  0  0
   -8.0250  -44.3830    6.9310 H   0  0  0  0  0  0  0  0  0  0  0  0
   -6.5770  -43.8380    5.4490 C   0  0  0  0  0  0  0  0  0  0  0  0
   -7.3070  -43.4070    4.7690 H   0  0  0  0  0  0  0  0  0  0  0  0
   -5.2060  -43.8520    5.0670 C   0  0  0  0  0  0  0  0  0  0  0  0
   -4.9180  -43.4070    4.1170 H   0  0  0  0  0  0  0  0  0  0  0  0
   -4.2700  -44.4360    5.8850 C   0  0  0  0  0  0  0  0  0  0  0  0
   -3.2260  -44.4880    5.5770 H   0  0  0  0  0  0  0  0  0  0  0  0
  1  2  1  0  0  0  0
  2  3  2  0  0  0  0
  4  2  1  0  0  0  0
  4  5  1  0  0  0  0
  6  7  1  0  0  0  0
  6  5  1  0  0  0  0
  7  8  1  0  0  0  0
  9 10  1  0  0  0  0
  9  7  2  0  0  0  0
 11  9  1  0  0  0  0
 12 11  1  0  0  0  0
 13 11  2  0  0  0  0
 13 15  1  0  0  0  0
 14 13  1  0  0  0  0
 15  6  2  0  0  0  0
 16 15  1  0  0  0  0
 16  4  2  0  0  0  0
 17 16  1  0  0  0  0
 17 20  1  0  0  0  0
 18 17  1  0  0  0  0
 19 17  1  0  0  0  0
 20 22  1  0  0  0  0
 20 23  1  0  0  0  0
 21 20  1  0  0  0  0
 23 25  1  0  0  0  0
 23 24  1  0  0  0  0
 26 23  1  0  0  0  0
 26 27  1  0  0  0  0
 27 34  1  0  0  0  0
 28 27  2  0  0  0  0
 28 29  1  0  0  0  0
 29 30  2  0  0  0  0
 30 32  1  0  0  0  0
 30 31  1  0  0  0  0
 32 33  1  0  0  0  0
 34 35  1  0  0  0  0
 34 32  2  0  0  0  0
 36 29  1  0  0  0  0
 36 37  1  0  0  0  0
 38 36  2  0  0  0  0
 39 38  1  0  0  0  0
 40 42  2  0  0  0  0
 40 38  1  0  0  0  0
 41 40  1  0  0  0  0
 42 28  1  0  0  0  0
 43 42  1  0  0  0  0
M  CHG  1   1  -1
M  END
$$$$
