26
                    3D
 Schrodinger Suite 2022-3.
 43 46  0  0  1  0  0  0  0  0999 V2000
    3.2370  -48.1280    7.1920 O   0  0  0  0  0  0  0  0  0  0  0  0
    2.8340  -49.1140    6.5680 C   0  0  0  0  0  0  0  0  0  0  0  0
    3.4960  -50.0110    6.0280 O   0  5  0  0  0  0  0  0  0  0  0  0
    1.2970  -49.3190    6.4610 C   0  0  0  0  0  0  0  0  0  0  0  0
   -0.4330  -50.7420    6.6310 C   0  0  0  0  0  0  0  0  0  0  0  0
   -1.2190  -51.8660    6.8580 C   0  0  0  0  0  0  0  0  0  0  0  0
   -2.5870  -51.7200    6.6070 C   0  0  0  0  0  0  0  0  0  0  0  0
   -3.1230  -50.5010    6.1500 C   0  0  0  0  0  0  0  0  0  0  0  0
   -2.3180  -49.3810    5.9310 C   0  0  0  0  0  0  0  0  0  0  0  0
   -0.9470  -49.4890    6.1750 C   0  0  0  0  0  0  0  0  0  0  0  0
    0.1970  -48.5920    6.0860 C   0  0  0  0  0  0  0  0  0  0  0  0
    0.0970  -47.1730    5.6550 C   0  0  0  0  0  0  0  0  0  0  0  0
    0.0880  -46.1830    6.8330 C   0  0  0  0  0  0  0  0  0  0  0  0
   -1.0990  -46.3440    7.7770 C   0  0  0  0  0  0  0  0  0  0  0  0
   -2.2240  -45.6770    7.0880 O   0  0  0  0  0  0  0  0  0  0  0  0
   -3.4470  -45.7080    7.6880 C   0  0  0  0  0  0  0  0  0  0  0  0
   -6.0580  -45.5480    8.7160 C   0  0  0  0  0  0  0  0  0  0  0  0
   -5.0880  -46.2680    9.3690 C   0  0  0  0  0  0  0  0  0  0  0  0
   -3.7650  -46.3610    8.8650 C   0  0  0  0  0  0  0  0  0  0  0  0
   -0.8200  -52.8160    7.2140 H   0  0  0  0  0  0  0  0  0  0  0  0
   -3.2580  -52.5640    6.7710 H   0  0  0  0  0  0  0  0  0  0  0  0
   -4.1960  -50.4310    5.9640 H   0  0  0  0  0  0  0  0  0  0  0  0
   -2.7640  -48.4500    5.5820 H   0  0  0  0  0  0  0  0  0  0  0  0
   -0.8540  -47.0420    5.0730 H   0  0  0  0  0  0  0  0  0  0  0  0
    0.9560  -46.9100    4.9880 H   0  0  0  0  0  0  0  0  0  0  0  0
    0.0710  -45.1420    6.4290 H   0  0  0  0  0  0  0  0  0  0  0  0
    1.0190  -46.3300    7.4340 H   0  0  0  0  0  0  0  0  0  0  0  0
   -0.9530  -45.7810    8.7230 H   0  0  0  0  0  0  0  0  0  0  0  0
   -1.3890  -47.4050    7.9240 H   0  0  0  0  0  0  0  0  0  0  0  0
   -3.0510  -46.9530    9.4280 H   0  0  0  0  0  0  0  0  0  0  0  0
   -5.7620  -44.9060    7.4730 C   0  0  0  0  0  0  0  0  0  0  0  0
   -4.4440  -44.9640    6.9490 C   0  0  0  0  0  0  0  0  0  0  0  0
   -4.1580  -44.3570    5.6930 C   0  0  0  0  0  0  0  0  0  0  0  0
   -5.1460  -43.7130    4.9880 C   0  0  0  0  0  0  0  0  0  0  0  0
   -6.4720  -43.6710    5.4980 C   0  0  0  0  0  0  0  0  0  0  0  0
   -6.7740  -44.2460    6.7090 C   0  0  0  0  0  0  0  0  0  0  0  0
   -3.1470  -44.4360    5.2870 H   0  0  0  0  0  0  0  0  0  0  0  0
   -4.9280  -43.2410    4.0320 H   0  0  0  0  0  0  0  0  0  0  0  0
   -7.2460  -43.1840    4.9100 H   0  0  0  0  0  0  0  0  0  0  0  0
   -7.7920  -44.2270    7.0940 H   0  0  0  0  0  0  0  0  0  0  0  0
   -5.3310  -46.7960   10.2950 H   0  0  0  0  0  0  0  0  0  0  0  0
   -7.0670  -45.4780    9.1170 H   0  0  0  0  0  0  0  0  0  0  0  0
    0.9510  -50.6460    6.8020 O   0  0  0  0  0  0  0  0  0  0  0  0
  1  2  2  0  0  0  0
  2  3  1  0  0  0  0
  2  4  1  0  0  0  0
  4 11  2  0  0  0  0
  4 43  1  0  0  0  0
  5  6  1  0  0  0  0
  5 10  2  0  0  0  0
  5 43  1  0  0  0  0
  6  7  2  0  0  0  0
  6 20  1  0  0  0  0
  7  8  1  0  0  0  0
  7 21  1  0  0  0  0
  8  9  2  0  0  0  0
  8 22  1  0  0  0  0
  9 10  1  0  0  0  0
  9 23  1  0  0  0  0
 10 11  1  0  0  0  0
 11 12  1  0  0  0  0
 12 24  1  0  0  0  0
 12 25  1  0  0  0  0
 12 13  1  0  0  0  0
 13 14  1  0  0  0  0
 13 26  1  0  0  0  0
 13 27  1  0  0  0  0
 14 15  1  0  0  0  0
 14 28  1  0  0  0  0
 14 29  1  0  0  0  0
 15 16  1  0  0  0  0
 16 19  2  0  0  0  0
 16 32  1  0  0  0  0
 17 18  2  0  0  0  0
 17 31  1  0  0  0  0
 17 42  1  0  0  0  0
 18 19  1  0  0  0  0
 18 41  1  0  0  0  0
 19 30  1  0  0  0  0
 31 32  2  0  0  0  0
 31 36  1  0  0  0  0
 32 33  1  0  0  0  0
 33 34  2  0  0  0  0
 33 37  1  0  0  0  0
 34 35  1  0  0  0  0
 34 38  1  0  0  0  0
 35 36  2  0  0  0  0
 35 39  1  0  0  0  0
 36 40  1  0  0  0  0
M  CHG  1   3  -1
M  END
$$$$
