32
 OpenBabel02232411153D
Structure written by MMmdl.
 54 57  0  0  0  0  0  0  0  0999 V2000
    1.7330   28.9310    6.7980 C   0  0  0  0  0  0  0  0  0  0  0  0
   -1.6810   31.5710    8.0300 C   0  0  0  0  0  0  0  0  0  0  0  0
   -0.2410   26.0590    8.8810 C   0  0  0  0  0  0  0  0  0  0  0  0
   -0.9720   25.3450   10.0240 C   0  0  0  0  0  0  0  0  0  0  0  0
   -0.7650   23.8270    9.8160 C   0  0  0  0  0  0  0  0  0  0  0  0
   -1.3500   23.0160   10.9800 C   0  0  0  0  0  0  0  0  0  0  0  0
   -0.7880   23.4830   12.3310 C   0  0  0  0  0  0  0  0  0  0  0  0
   -1.0350   24.9850   12.5420 C   0  0  0  0  0  0  0  0  0  0  0  0
   -0.4350   25.8090   11.3930 C   0  0  0  0  0  0  0  0  0  0  0  0
    4.1670   25.4420    8.0120 C   0  0  0  0  0  0  0  0  0  0  0  0
    4.9880   24.8600    7.0300 C   0  0  0  0  0  0  0  0  0  0  0  0
    5.1460   25.5640    5.8160 C   0  0  0  0  0  0  0  0  0  0  0  0
    4.4960   26.7850    5.5780 C   0  0  0  0  0  0  0  0  0  0  0  0
    1.0010   27.9760    7.4940 N   0  0  0  0  0  0  0  0  0  0  0  0
   -0.1720   28.3200    8.0840 C   0  0  0  0  0  0  0  0  0  0  0  0
   -0.8470   27.4160    8.8100 O   0  0  0  0  0  0  0  0  0  0  0  0
   -0.6700   29.6420    7.9430 C   0  0  0  0  0  0  0  0  0  0  0  0
   -1.8000   30.3030    8.4340 N   0  0  0  0  0  0  0  0  0  0  0  0
   -0.4760   31.7920    7.2750 N   0  0  0  0  0  0  0  0  0  0  0  0
    0.1690   30.5630    7.1940 C   0  0  0  0  0  0  0  0  0  0  0  0
    1.3610   30.2420    6.5860 N   0  0  0  0  0  0  0  0  0  0  0  0
    2.9500   28.5090    6.2500 N   0  0  0  0  0  0  0  0  0  0  0  0
    3.6360   27.3010    6.5600 C   0  0  0  0  0  0  0  0  0  0  0  0
    3.5090   26.6420    7.8040 C   0  0  0  0  0  0  0  0  0  0  0  0
   -2.3700   32.3830    8.2420 H   0  0  0  0  0  0  0  0  0  0  0  0
    0.8480   26.1540    9.0940 H   0  0  0  0  0  0  0  0  0  0  0  0
   -0.4320   25.5950    7.8930 H   0  0  0  0  0  0  0  0  0  0  0  0
   -2.0640   25.5730    9.9820 H   0  0  0  0  0  0  0  0  0  0  0  0
   -1.2580   23.5130    8.8700 H   0  0  0  0  0  0  0  0  0  0  0  0
    0.3300   23.6090    9.7420 H   0  0  0  0  0  0  0  0  0  0  0  0
   -2.4540   23.1370   10.9910 H   0  0  0  0  0  0  0  0  0  0  0  0
   -1.1060   21.9370   10.8380 H   0  0  0  0  0  0  0  0  0  0  0  0
   -1.2720   22.9080   13.1530 H   0  0  0  0  0  0  0  0  0  0  0  0
    0.3100   23.2880   12.3540 H   0  0  0  0  0  0  0  0  0  0  0  0
   -2.1290   25.1760   12.6180 H   0  0  0  0  0  0  0  0  0  0  0  0
   -0.5580   25.3030   13.4970 H   0  0  0  0  0  0  0  0  0  0  0  0
    0.6770   25.6950   11.4220 H   0  0  0  0  0  0  0  0  0  0  0  0
   -0.6810   26.8840   11.5410 H   0  0  0  0  0  0  0  0  0  0  0  0
    4.0150   24.9430    8.9760 H   0  0  0  0  0  0  0  0  0  0  0  0
    4.6360   27.3380    4.6510 H   0  0  0  0  0  0  0  0  0  0  0  0
   -0.1950   32.6690    6.8130 H   0  0  0  0  0  0  0  0  0  0  0  0
    3.4520   29.1490    5.5890 H   0  0  0  0  0  0  0  0  0  0  0  0
    2.8850   27.0550    8.5950 H   0  0  0  0  0  0  0  0  0  0  0  0
    5.7730   23.3690    7.3630 S   0  0  0  0  0  0  0  0  0  0  0  0
    5.8100   22.5350    6.1540 O   0  0  0  0  0  0  0  0  0  0  0  0
    7.0880   23.6550    7.9460 O   0  0  0  0  0  0  0  0  0  0  0  0
    4.8150   22.5250    8.4740 N   0  0  0  0  0  0  0  0  0  0  0  0
    3.8600   22.2190    8.2420 H   0  0  0  0  0  0  0  0  0  0  0  0
    4.8770   22.8170    9.4930 H   0  0  0  0  0  0  0  0  0  0  0  0
    5.9540   24.9350    4.9140 O   0  0  0  0  0  0  0  0  0  0  0  0
    6.1860   25.5730    3.6260 C   0  0  0  0  0  0  0  0  0  0  0  0
    6.8740   24.8430    3.1340 H   0  0  0  0  0  0  0  0  0  0  0  0
    5.2290   25.6590    3.0680 H   0  0  0  0  0  0  0  0  0  0  0  0
    6.6870   26.5530    3.7750 H   0  0  0  0  0  0  0  0  0  0  0  0
  1 14  2  0  0  0  0
  1 21  1  0  0  0  0
  1 22  1  0  0  0  0
  2 18  2  0  0  0  0
  2 19  1  0  0  0  0
  2 25  1  0  0  0  0
  3  4  1  0  0  0  0
  3 16  1  0  0  0  0
  3 26  1  0  0  0  0
  3 27  1  0  0  0  0
  4  5  1  0  0  0  0
  4  9  1  0  0  0  0
  4 28  1  0  0  0  0
  5  6  1  0  0  0  0
  5 29  1  0  0  0  0
  5 30  1  0  0  0  0
  6  7  1  0  0  0  0
  6 31  1  0  0  0  0
  6 32  1  0  0  0  0
  7  8  1  0  0  0  0
  7 33  1  0  0  0  0
  7 34  1  0  0  0  0
  8  9  1  0  0  0  0
  8 35  1  0  0  0  0
  8 36  1  0  0  0  0
  9 37  1  0  0  0  0
  9 38  1  0  0  0  0
 10 11  2  0  0  0  0
 10 24  1  0  0  0  0
 10 39  1  0  0  0  0
 11 12  1  0  0  0  0
 11 44  1  0  0  0  0
 12 13  2  0  0  0  0
 12 50  1  0  0  0  0
 13 23  1  0  0  0  0
 13 40  1  0  0  0  0
 14 15  1  0  0  0  0
 15 16  1  0  0  0  0
 15 17  2  0  0  0  0
 17 18  1  0  0  0  0
 17 20  1  0  0  0  0
 19 20  1  0  0  0  0
 19 41  1  0  0  0  0
 20 21  2  0  0  0  0
 22 23  1  0  0  0  0
 22 42  1  0  0  0  0
 23 24  2  0  0  0  0
 24 43  1  0  0  0  0
 44 45  2  0  0  0  0
 44 46  2  0  0  0  0
 44 47  1  0  0  0  0
 47 49  1  0  0  0  0
 47 48  1  0  0  0  0
 50 51  1  0  0  0  0
 51 52  1  0  0  0  0
 51 53  1  0  0  0  0
 51 54  1  0  0  0  0
M  END
$$$$
