18639-1
 OpenBabel02232411163D
Structure written by MMmdl.
 48 49  0  0  0  0  0  0  0  0999 V2000
   23.8810   12.6040   30.3380 C   0  0  0  0  0  0  0  0  0  0  0  0
   23.4210   11.1640   30.4500 C   0  0  0  0  0  0  0  0  0  0  0  0
   22.1670   11.2710   31.2420 O   0  0  0  0  0  0  0  0  0  0  0  0
   21.5370   10.1320   31.5960 C   0  0  0  0  0  0  0  0  0  0  0  0
   22.0200    8.9430   31.1610 N   0  0  0  0  0  0  0  0  0  0  0  0
   21.2970    7.8050   31.4850 C   0  0  0  0  0  0  0  0  0  0  0  0
   20.1390    7.8410   32.2550 C   0  0  0  0  0  0  0  0  0  0  0  0
   19.6500    9.0910   32.7220 C   0  0  0  0  0  0  0  0  0  0  0  0
   18.5010    9.1290   33.4710 N   0  0  0  0  0  0  0  0  0  0  0  0
   20.3570   10.2890   32.3830 C   0  0  0  0  0  0  0  0  0  0  0  0
   19.9410   11.5880   32.7440 C   0  0  0  0  0  0  0  0  0  0  0  0
   19.6480   12.6810   33.0000 N   0  0  0  0  0  0  0  0  0  0  0  0
   21.8740    6.6370   30.9310 N   0  0  0  0  0  0  0  0  0  0  0  0
   21.2710    5.3650   30.8470 C   0  0  0  0  0  0  0  0  0  0  0  0
   20.1780    5.1220   31.3140 O   0  0  0  0  0  0  0  0  0  0  0  0
   22.0860    4.3550   30.0470 C   0  0  0  0  0  0  0  0  0  0  0  0
   23.4420    4.0590   30.6160 C   0  0  0  0  0  0  0  0  0  0  0  0
   24.5550    4.9020   30.3060 C   0  0  0  0  0  0  0  0  0  0  0  0
   24.2210    5.9520   29.4610 O   0  0  0  0  0  0  0  0  0  0  0  0
   25.1980    7.0160   29.2890 C   0  0  0  0  0  0  0  0  0  0  0  0
   25.8270    4.6400   30.7920 C   0  0  0  0  0  0  0  0  0  0  0  0
   26.0320    3.5210   31.6260 C   0  0  0  0  0  0  0  0  0  0  0  0
   27.3760    3.2430   32.1410 N   0  3  0  0  0  0  0  0  0  0  0  0
   27.4880    2.4520   33.0640 O   0  5  0  0  0  0  0  0  0  0  0  0
   28.3300    3.8100   31.6210 O   0  0  0  0  0  0  0  0  0  0  0  0
   24.9440    2.6720   31.9370 C   0  0  0  0  0  0  0  0  0  0  0  0
   23.6570    2.9480   31.4160 C   0  0  0  0  0  0  0  0  0  0  0  0
   25.2670    1.6290   32.7500 O   0  0  0  0  0  0  0  0  0  0  0  0
   24.2540    0.6050   32.9770 C   0  0  0  0  0  0  0  0  0  0  0  0
   24.7890   12.6380   29.6850 H   0  0  0  0  0  0  0  0  0  0  0  0
   23.0930   13.2400   29.8700 H   0  0  0  0  0  0  0  0  0  0  0  0
   24.1410   13.0270   31.3340 H   0  0  0  0  0  0  0  0  0  0  0  0
   23.1570   10.7210   29.4630 H   0  0  0  0  0  0  0  0  0  0  0  0
   24.1380   10.5270   31.0160 H   0  0  0  0  0  0  0  0  0  0  0  0
   19.5900    6.9270   32.4900 H   0  0  0  0  0  0  0  0  0  0  0  0
   17.9980    8.2560   33.7220 H   0  0  0  0  0  0  0  0  0  0  0  0
   18.0950   10.0130   33.7760 H   0  0  0  0  0  0  0  0  0  0  0  0
   22.7960    6.7770   30.4470 H   0  0  0  0  0  0  0  0  0  0  0  0
   21.4950    3.4020   29.9770 H   0  0  0  0  0  0  0  0  0  0  0  0
   22.2140    4.7700   29.0070 H   0  0  0  0  0  0  0  0  0  0  0  0
   25.5220    7.4130   30.2750 H   0  0  0  0  0  0  0  0  0  0  0  0
   26.0470    6.6370   28.6820 H   0  0  0  0  0  0  0  0  0  0  0  0
   24.6000    7.7710   28.7290 H   0  0  0  0  0  0  0  0  0  0  0  0
   26.6800    5.2780   30.5310 H   0  0  0  0  0  0  0  0  0  0  0  0
   22.8270    2.2740   31.6430 H   0  0  0  0  0  0  0  0  0  0  0  0
   24.8210   -0.1340   33.5920 H   0  0  0  0  0  0  0  0  0  0  0  0
   23.4010    1.0300   33.5490 H   0  0  0  0  0  0  0  0  0  0  0  0
   23.9380    0.1600   32.0080 H   0  0  0  0  0  0  0  0  0  0  0  0
  1  2  1  0  0  0  0
  1 30  1  0  0  0  0
  1 31  1  0  0  0  0
  1 32  1  0  0  0  0
  2  3  1  0  0  0  0
  2 33  1  0  0  0  0
  2 34  1  0  0  0  0
  3  4  1  0  0  0  0
  4 10  2  0  0  0  0
  4  5  1  0  0  0  0
  5  6  2  0  0  0  0
  6  7  1  0  0  0  0
  6 13  1  0  0  0  0
  7  8  2  0  0  0  0
  7 35  1  0  0  0  0
  8  9  1  0  0  0  0
  8 10  1  0  0  0  0
  9 36  1  0  0  0  0
  9 37  1  0  0  0  0
 10 11  1  0  0  0  0
 11 12  3  0  0  0  0
 13 14  1  0  0  0  0
 13 38  1  0  0  0  0
 14 15  2  0  0  0  0
 14 16  1  0  0  0  0
 16 17  1  0  0  0  0
 16 39  1  0  0  0  0
 16 40  1  0  0  0  0
 17 27  2  0  0  0  0
 17 18  1  0  0  0  0
 18 19  1  0  0  0  0
 18 21  2  0  0  0  0
 19 20  1  0  0  0  0
 20 41  1  0  0  0  0
 20 42  1  0  0  0  0
 20 43  1  0  0  0  0
 21 22  1  0  0  0  0
 21 44  1  0  0  0  0
 22 23  1  0  0  0  0
 22 26  2  0  0  0  0
 23 24  1  0  0  0  0
 23 25  2  0  0  0  0
 26 27  1  0  0  0  0
 26 28  1  0  0  0  0
 27 45  1  0  0  0  0
 28 29  1  0  0  0  0
 29 46  1  0  0  0  0
 29 47  1  0  0  0  0
 29 48  1  0  0  0  0
M  CHG  2  23   1  24  -1
M  END
$$$$
