1oiu
 OpenBabel02232411153D
Structure written by MMmdl.
 50 53  0  0  0  0  0  0  0  0999 V2000
    2.0160   28.7570    6.7610 C   0  0  0  0  0  0  0  0  0  0  0  0
   -1.4430   31.4010    7.8830 C   0  0  0  0  0  0  0  0  0  0  0  0
    0.0080   25.9390    8.9260 C   0  0  0  0  0  0  0  0  0  0  0  0
   -0.8160   25.2620   10.0290 C   0  0  0  0  0  0  0  0  0  0  0  0
   -0.6830   23.7340    9.8370 C   0  0  0  0  0  0  0  0  0  0  0  0
   -1.3780   22.9650   10.9700 C   0  0  0  0  0  0  0  0  0  0  0  0
   -0.8660   23.4060   12.3500 C   0  0  0  0  0  0  0  0  0  0  0  0
   -1.0310   24.9220   12.5440 C   0  0  0  0  0  0  0  0  0  0  0  0
   -0.3310   25.7040   11.4230 C   0  0  0  0  0  0  0  0  0  0  0  0
    5.2150   25.3050    5.4450 C   0  0  0  0  0  0  0  0  0  0  0  0
    5.1410   24.6020    6.6550 C   0  0  0  0  0  0  0  0  0  0  0  0
    4.4740   25.1580    7.7500 C   0  0  0  0  0  0  0  0  0  0  0  0
    3.8420   26.3990    7.6460 C   0  0  0  0  0  0  0  0  0  0  0  0
    1.3010   27.8240    7.5090 N   0  0  0  0  0  0  0  0  0  0  0  0
    0.1010   28.1710    8.0420 C   0  0  0  0  0  0  0  0  0  0  0  0
   -0.5910   27.2910    8.7810 O   0  0  0  0  0  0  0  0  0  0  0  0
   -0.4180   29.4770    7.8400 C   0  0  0  0  0  0  0  0  0  0  0  0
   -1.5620   30.1390    8.3010 N   0  0  0  0  0  0  0  0  0  0  0  0
   -0.2240   31.6190    7.1470 N   0  0  0  0  0  0  0  0  0  0  0  0
    0.4260   30.3900    7.0860 C   0  0  0  0  0  0  0  0  0  0  0  0
    1.6210   30.0590    6.4970 N   0  0  0  0  0  0  0  0  0  0  0  0
    3.2280   28.3470    6.2180 N   0  0  0  0  0  0  0  0  0  0  0  0
    3.8750   27.0830    6.4200 C   0  0  0  0  0  0  0  0  0  0  0  0
    4.5960   26.5480    5.3240 C   0  0  0  0  0  0  0  0  0  0  0  0
   -2.1380   32.2160    8.0640 H   0  0  0  0  0  0  0  0  0  0  0  0
    1.0780   26.0430    9.2130 H   0  0  0  0  0  0  0  0  0  0  0  0
   -0.1150   25.4480    7.9400 H   0  0  0  0  0  0  0  0  0  0  0  0
   -1.8910   25.5480    9.9240 H   0  0  0  0  0  0  0  0  0  0  0  0
   -1.1400   23.4420    8.8660 H   0  0  0  0  0  0  0  0  0  0  0  0
    0.4000   23.4560    9.8220 H   0  0  0  0  0  0  0  0  0  0  0  0
   -2.4730   23.1500   10.9180 H   0  0  0  0  0  0  0  0  0  0  0  0
   -1.1890   21.8730   10.8450 H   0  0  0  0  0  0  0  0  0  0  0  0
   -1.4310   22.8670   13.1440 H   0  0  0  0  0  0  0  0  0  0  0  0
    0.2130   23.1420   12.4380 H   0  0  0  0  0  0  0  0  0  0  0  0
   -2.1150   25.1760   12.5680 H   0  0  0  0  0  0  0  0  0  0  0  0
   -0.5810   25.2170   13.5200 H   0  0  0  0  0  0  0  0  0  0  0  0
    0.7700   25.5340   11.5100 H   0  0  0  0  0  0  0  0  0  0  0  0
   -0.5280   26.7920   11.5550 H   0  0  0  0  0  0  0  0  0  0  0  0
    5.5900   23.6120    6.7660 H   0  0  0  0  0  0  0  0  0  0  0  0
    4.4230   24.6060    8.6930 H   0  0  0  0  0  0  0  0  0  0  0  0
    3.3180   26.8060    8.5130 H   0  0  0  0  0  0  0  0  0  0  0  0
    0.0410   32.5000    6.6830 H   0  0  0  0  0  0  0  0  0  0  0  0
    3.7420   29.0150    5.6000 H   0  0  0  0  0  0  0  0  0  0  0  0
    4.6450   27.1220    4.3930 H   0  0  0  0  0  0  0  0  0  0  0  0
    5.9980   24.5460    4.0840 S   0  0  0  0  0  0  0  0  0  0  0  0
    6.2640   25.4850    2.9840 O   0  0  0  0  0  0  0  0  0  0  0  0
    7.1850   23.7820    4.5030 O   0  0  0  0  0  0  0  0  0  0  0  0
    4.7790   23.4760    3.5430 N   0  0  0  0  0  0  0  0  0  0  0  0
    4.7770   23.1780    2.5540 H   0  0  0  0  0  0  0  0  0  0  0  0
    4.5020   22.7000    4.1670 H   0  0  0  0  0  0  0  0  0  0  0  0
  1 14  2  0  0  0  0
  1 21  1  0  0  0  0
  1 22  1  0  0  0  0
  2 18  2  0  0  0  0
  2 19  1  0  0  0  0
  2 25  1  0  0  0  0
  3  4  1  0  0  0  0
  3 16  1  0  0  0  0
  3 26  1  0  0  0  0
  3 27  1  0  0  0  0
  4  5  1  0  0  0  0
  4  9  1  0  0  0  0
  4 28  1  0  0  0  0
  5  6  1  0  0  0  0
  5 29  1  0  0  0  0
  5 30  1  0  0  0  0
  6  7  1  0  0  0  0
  6 31  1  0  0  0  0
  6 32  1  0  0  0  0
  7  8  1  0  0  0  0
  7 33  1  0  0  0  0
  7 34  1  0  0  0  0
  8  9  1  0  0  0  0
  8 35  1  0  0  0  0
  8 36  1  0  0  0  0
  9 37  1  0  0  0  0
  9 38  1  0  0  0  0
 10 11  2  0  0  0  0
 10 24  1  0  0  0  0
 10 45  1  0  0  0  0
 11 12  1  0  0  0  0
 11 39  1  0  0  0  0
 12 13  2  0  0  0  0
 12 40  1  0  0  0  0
 13 23  1  0  0  0  0
 13 41  1  0  0  0  0
 14 15  1  0  0  0  0
 15 16  1  0  0  0  0
 15 17  2  0  0  0  0
 17 18  1  0  0  0  0
 17 20  1  0  0  0  0
 19 20  1  0  0  0  0
 19 42  1  0  0  0  0
 20 21  2  0  0  0  0
 22 23  1  0  0  0  0
 22 43  1  0  0  0  0
 23 24  2  0  0  0  0
 24 44  1  0  0  0  0
 45 46  2  0  0  0  0
 45 47  2  0  0  0  0
 45 48  1  0  0  0  0
 48 49  1  0  0  0  0
 48 50  1  0  0  0  0
M  END
$$$$
