1oiu
                    3D
 Schrodinger Suite 2022-3.
 50 53  0  0  1  0  0  0  0  0999 V2000
    1.9180   28.8190    6.7080 C   0  0  0  0  0  0  0  0  0  0  0  0
   -1.5210   31.4880    7.8410 C   0  0  0  0  0  0  0  0  0  0  0  0
   -0.1550   26.0020    8.8480 C   0  0  0  0  0  0  0  0  0  0  0  0
   -0.9820   25.3690    9.9750 C   0  0  0  0  0  0  0  0  0  0  0  0
   -0.8610   23.8340    9.8430 C   0  0  0  0  0  0  0  0  0  0  0  0
   -1.5860   23.1230   10.9940 C   0  0  0  0  0  0  0  0  0  0  0  0
   -1.0850   23.6020   12.3650 C   0  0  0  0  0  0  0  0  0  0  0  0
   -1.2120   25.1280   12.5020 C   0  0  0  0  0  0  0  0  0  0  0  0
   -0.4950   25.8560   11.3550 C   0  0  0  0  0  0  0  0  0  0  0  0
    5.3540   25.4740    5.6260 C   0  0  0  0  0  0  0  0  0  0  0  0
    5.2420   24.8080    6.8530 C   0  0  0  0  0  0  0  0  0  0  0  0
    4.4310   25.3350    7.8620 C   0  0  0  0  0  0  0  0  0  0  0  0
    3.7200   26.5180    7.6610 C   0  0  0  0  0  0  0  0  0  0  0  0
    1.1840   27.8840    7.4350 N   0  0  0  0  0  0  0  0  0  0  0  0
   -0.0070   28.2420    7.9800 C   0  0  0  0  0  0  0  0  0  0  0  0
   -0.7240   27.3650    8.6950 O   0  0  0  0  0  0  0  0  0  0  0  0
   -0.4990   29.5630    7.8110 C   0  0  0  0  0  0  0  0  0  0  0  0
   -1.6450   30.2280    8.2620 N   0  0  0  0  0  0  0  0  0  0  0  0
   -0.2890   31.7040    7.1260 N   0  0  0  0  0  0  0  0  0  0  0  0
    0.3560   30.4730    7.0670 C   0  0  0  0  0  0  0  0  0  0  0  0
    1.5500   30.1350    6.4800 N   0  0  0  0  0  0  0  0  0  0  0  0
    3.1070   28.3880    6.1240 N   0  0  0  0  0  0  0  0  0  0  0  0
    3.8120   27.1750    6.4200 C   0  0  0  0  0  0  0  0  0  0  0  0
    4.6590   26.6640    5.4080 C   0  0  0  0  0  0  0  0  0  0  0  0
   -2.2210   32.3030    7.9980 H   0  0  0  0  0  0  0  0  0  0  0  0
   -0.3130   25.5010    7.8720 H   0  0  0  0  0  0  0  0  0  0  0  0
    0.9220   26.0790    9.1140 H   0  0  0  0  0  0  0  0  0  0  0  0
   -2.0550   25.6620    9.8520 H   0  0  0  0  0  0  0  0  0  0  0  0
    0.2170   23.5430    9.8570 H   0  0  0  0  0  0  0  0  0  0  0  0
   -1.3070   23.5100    8.8770 H   0  0  0  0  0  0  0  0  0  0  0  0
   -1.4260   22.0230   10.9110 H   0  0  0  0  0  0  0  0  0  0  0  0
   -2.6760   23.3330   10.9180 H   0  0  0  0  0  0  0  0  0  0  0  0
   -0.0160   23.3120   12.4910 H   0  0  0  0  0  0  0  0  0  0  0  0
   -1.6820   23.1090   13.1670 H   0  0  0  0  0  0  0  0  0  0  0  0
   -0.7530   25.4430   13.4690 H   0  0  0  0  0  0  0  0  0  0  0  0
   -2.2900   25.4090   12.5190 H   0  0  0  0  0  0  0  0  0  0  0  0
   -0.6770   26.9500   11.4450 H   0  0  0  0  0  0  0  0  0  0  0  0
    0.6020   25.6710   11.4540 H   0  0  0  0  0  0  0  0  0  0  0  0
    5.7890   23.8810    7.0460 H   0  0  0  0  0  0  0  0  0  0  0  0
    4.3440   24.8130    8.8190 H   0  0  0  0  0  0  0  0  0  0  0  0
    3.1010   26.9110    8.4700 H   0  0  0  0  0  0  0  0  0  0  0  0
   -0.0430   32.5710    6.6280 H   0  0  0  0  0  0  0  0  0  0  0  0
    3.6320   29.0620    5.5210 H   0  0  0  0  0  0  0  0  0  0  0  0
    4.7580   27.2170    4.4670 H   0  0  0  0  0  0  0  0  0  0  0  0
    6.3550   24.7450    4.4000 S   0  0  0  0  0  0  0  0  0  0  0  0
    6.4330   25.5730    3.1900 O   0  0  0  0  0  0  0  0  0  0  0  0
    5.9410   23.3570    4.1290 O   0  0  0  0  0  0  0  0  0  0  0  0
    8.3380   25.6110    5.3520 H   0  0  0  0  0  0  0  0  0  0  0  0
    7.8770   24.6860    5.1800 N   0  0  0  0  0  0  0  0  0  0  0  0
    8.5650   23.9800    4.8720 H   0  0  0  0  0  0  0  0  0  0  0  0
  1 14  1  0  0  0  0
  1 21  2  0  0  0  0
  1 22  1  0  0  0  0
  2 18  2  0  0  0  0
  2 19  1  0  0  0  0
  2 25  1  0  0  0  0
  3  4  1  0  0  0  0
  3 16  1  0  0  0  0
  3 26  1  0  0  0  0
  3 27  1  0  0  0  0
  4  5  1  0  0  0  0
  4  9  1  0  0  0  0
  4 28  1  0  0  0  0
  5  6  1  0  0  0  0
  5 29  1  0  0  0  0
  5 30  1  0  0  0  0
  6  7  1  0  0  0  0
  6 31  1  0  0  0  0
  6 32  1  0  0  0  0
  7  8  1  0  0  0  0
  7 33  1  0  0  0  0
  7 34  1  0  0  0  0
  8  9  1  0  0  0  0
  8 35  1  0  0  0  0
  8 36  1  0  0  0  0
  9 37  1  0  0  0  0
  9 38  1  0  0  0  0
 10 11  1  0  0  0  0
 10 24  2  0  0  0  0
 10 45  1  0  0  0  0
 11 12  2  0  0  0  0
 11 39  1  0  0  0  0
 12 13  1  0  0  0  0
 12 40  1  0  0  0  0
 13 23  2  0  0  0  0
 13 41  1  0  0  0  0
 14 15  2  0  0  0  0
 15 16  1  0  0  0  0
 15 17  1  0  0  0  0
 17 18  1  0  0  0  0
 17 20  2  0  0  0  0
 19 20  1  0  0  0  0
 19 42  1  0  0  0  0
 20 21  1  0  0  0  0
 22 23  1  0  0  0  0
 22 43  1  0  0  0  0
 23 24  1  0  0  0  0
 24 44  1  0  0  0  0
 45 46  2  0  0  0  0
 45 47  2  0  0  0  0
 45 49  1  0  0  0  0
 48 49  1  0  0  0  0
 49 50  1  0  0  0  0
M  END
$$$$
