23484
 OpenBabel02232411173D
Structure written by MMmdl.
 60 63  0  0  0  0  0  0  0  0999 V2000
   40.0950   18.1960   12.7570 O   0  0  0  0  0  0  0  0  0  0  0  0
   41.1780   17.6060   12.9540 C   0  0  0  0  0  0  0  0  0  0  0  0
   42.3060   18.0160   12.6550 O   0  5  0  0  0  0  0  0  0  0  0  0
   41.0780   16.2020   13.6450 C   0  0  0  0  0  0  0  0  0  0  0  0
   42.4190   16.0920   14.2040 O   0  0  0  0  0  0  0  0  0  0  0  0
   42.6540   15.0060   14.9860 C   0  0  0  0  0  0  0  0  0  0  0  0
   42.0110   13.7210   14.9150 C   0  0  0  0  0  0  0  0  0  0  0  0
   42.5420   12.8010   15.7950 C   0  0  0  0  0  0  0  0  0  0  0  0
   42.1070   11.4390   16.0180 C   0  0  0  0  0  0  0  0  0  0  0  0
   42.7980   10.5310   16.8590 C   0  0  0  0  0  0  0  0  0  0  0  0
   42.3010    9.2480   17.0600 C   0  0  0  0  0  0  0  0  0  0  0  0
   41.1180    8.8020   16.4490 C   0  0  0  0  0  0  0  0  0  0  0  0
   40.4200    9.6890   15.6210 C   0  0  0  0  0  0  0  0  0  0  0  0
   39.1200    9.4350   15.0830 N   0  0  0  0  0  0  0  0  0  0  0  0
   38.6050    8.0730   14.8010 C   0  0  0  0  0  0  0  0  0  0  0  0
   37.0880    8.2390   14.5170 C   0  0  0  0  0  0  0  0  0  0  0  0
   36.4510    6.9050   14.0980 C   0  0  0  0  0  0  0  0  0  0  0  0
   37.1400    6.3820   12.8780 N   0  0  0  0  0  0  0  0  0  0  0  0
   36.2670    5.2180   11.9890 S   0  0  0  0  0  0  0  0  0  0  0  0
   37.0830    4.8050   10.8520 O   0  0  0  0  0  0  0  0  0  0  0  0
   35.0310    5.8740   11.5450 O   0  0  0  0  0  0  0  0  0  0  0  0
   35.9620    3.8630   13.0720 C   0  0  0  0  0  0  0  0  0  0  0  0
   35.6230    2.6200   12.3170 C   0  0  0  0  0  0  0  0  0  0  0  0
   34.3080    2.1330   12.3090 C   0  0  0  0  0  0  0  0  0  0  0  0
   33.9890    0.9830   11.5800 C   0  0  0  0  0  0  0  0  0  0  0  0
   34.9750    0.3180   10.8470 C   0  0  0  0  0  0  0  0  0  0  0  0
   36.2930    0.7880   10.8720 C   0  0  0  0  0  0  0  0  0  0  0  0
   36.6230    1.9240   11.6130 C   0  0  0  0  0  0  0  0  0  0  0  0
   38.5820    6.1040   13.1680 C   0  0  0  0  0  0  0  0  0  0  0  0
   39.2930    7.4040   13.5820 C   0  0  0  0  0  0  0  0  0  0  0  0
   40.9340   10.9860   15.3930 C   0  0  0  0  0  0  0  0  0  0  0  0
   43.8350   13.5490   16.6950 S   0  0  0  0  0  0  0  0  0  0  0  0
   43.6710   15.0910   15.9180 C   0  0  0  0  0  0  0  0  0  0  0  0
   44.5240   16.2850   16.3040 C   0  0  0  0  0  0  0  0  0  0  0  0
   45.1910   16.1610   17.3590 O   0  0  0  0  0  0  0  0  0  0  0  0
   44.5240   17.2770   15.5690 O   0  5  0  0  0  0  0  0  0  0  0  0
   40.8930   15.3940   12.9100 H   0  0  0  0  0  0  0  0  0  0  0  0
   40.3240   16.1760   14.4620 H   0  0  0  0  0  0  0  0  0  0  0  0
   41.1900   13.4930   14.2450 H   0  0  0  0  0  0  0  0  0  0  0  0
   43.7270   10.8140   17.3560 H   0  0  0  0  0  0  0  0  0  0  0  0
   42.8330    8.5520   17.7140 H   0  0  0  0  0  0  0  0  0  0  0  0
   40.7640    7.7900   16.6240 H   0  0  0  0  0  0  0  0  0  0  0  0
   38.8710   10.0790   14.3000 H   0  0  0  0  0  0  0  0  0  0  0  0
   38.7430    7.4190   15.7000 H   0  0  0  0  0  0  0  0  0  0  0  0
   36.5800    8.5910   15.4460 H   0  0  0  0  0  0  0  0  0  0  0  0
   36.9360    8.9850   13.7020 H   0  0  0  0  0  0  0  0  0  0  0  0
   36.5370    6.1730   14.9510 H   0  0  0  0  0  0  0  0  0  0  0  0
   35.3680    7.0760   13.8700 H   0  0  0  0  0  0  0  0  0  0  0  0
   36.8630    3.6650   13.7280 H   0  0  0  0  0  0  0  0  0  0  0  0
   35.1490    4.1160   13.8120 H   0  0  0  0  0  0  0  0  0  0  0  0
   33.5200    2.6400   12.8730 H   0  0  0  0  0  0  0  0  0  0  0  0
   32.9600    0.6130   11.5780 H   0  0  0  0  0  0  0  0  0  0  0  0
   34.7160   -0.5620   10.2550 H   0  0  0  0  0  0  0  0  0  0  0  0
   37.0650    0.2580   10.3060 H   0  0  0  0  0  0  0  0  0  0  0  0
   37.6630    2.2650   11.6440 H   0  0  0  0  0  0  0  0  0  0  0  0
   38.6850    5.3540   14.0020 H   0  0  0  0  0  0  0  0  0  0  0  0
   39.0750    5.7000   12.2470 H   0  0  0  0  0  0  0  0  0  0  0  0
   39.2810    8.1090   12.7290 H   0  0  0  0  0  0  0  0  0  0  0  0
   40.3440    7.1470   13.8540 H   0  0  0  0  0  0  0  0  0  0  0  0
   40.3850   11.6410   14.7210 H   0  0  0  0  0  0  0  0  0  0  0  0
  1  2  2  0  0  0  0
  2  3  1  0  0  0  0
  2  4  1  0  0  0  0
  4  5  1  0  0  0  0
  4 37  1  0  0  0  0
  4 38  1  0  0  0  0
  5  6  1  0  0  0  0
  6 33  2  0  0  0  0
  6  7  1  0  0  0  0
  7  8  2  0  0  0  0
  7 39  1  0  0  0  0
  8  9  1  0  0  0  0
  8 32  1  0  0  0  0
  9 31  2  0  0  0  0
  9 10  1  0  0  0  0
 10 11  2  0  0  0  0
 10 40  1  0  0  0  0
 11 12  1  0  0  0  0
 11 41  1  0  0  0  0
 12 13  2  0  0  0  0
 12 42  1  0  0  0  0
 13 14  1  0  0  0  0
 13 31  1  0  0  0  0
 14 15  1  0  0  0  0
 14 43  1  0  0  0  0
 15 30  1  0  0  0  0
 15 16  1  0  0  0  0
 15 44  1  0  0  0  0
 16 17  1  0  0  0  0
 16 45  1  0  0  0  0
 16 46  1  0  0  0  0
 17 18  1  0  0  0  0
 17 47  1  0  0  0  0
 17 48  1  0  0  0  0
 18 19  1  0  0  0  0
 18 29  1  0  0  0  0
 19 20  2  0  0  0  0
 19 21  2  0  0  0  0
 19 22  1  0  0  0  0
 22 23  1  0  0  0  0
 22 49  1  0  0  0  0
 22 50  1  0  0  0  0
 23 28  2  0  0  0  0
 23 24  1  0  0  0  0
 24 25  2  0  0  0  0
 24 51  1  0  0  0  0
 25 26  1  0  0  0  0
 25 52  1  0  0  0  0
 26 27  2  0  0  0  0
 26 53  1  0  0  0  0
 27 28  1  0  0  0  0
 27 54  1  0  0  0  0
 28 55  1  0  0  0  0
 29 30  1  0  0  0  0
 29 56  1  0  0  0  0
 29 57  1  0  0  0  0
 30 58  1  0  0  0  0
 30 59  1  0  0  0  0
 31 60  1  0  0  0  0
 32 33  1  0  0  0  0
 33 34  1  0  0  0  0
 34 35  2  0  0  0  0
 34 36  1  0  0  0  0
M  CHG  2   3  -1  36  -1
M  END
$$$$
