ejm_45
 OpenBabel02232411173D
Structure written by MMmdl.
 39 41  0  0  0  0  0  0  0  0999 V2000
   -1.5620   21.5130  -27.5630 C   0  0  0  0  0  0  0  0  0  0  0  0
   -2.8390   21.0050  -27.8190 C   0  0  0  0  0  0  0  0  0  0  0  0
   -3.6120   21.5680  -28.8350 C   0  0  0  0  0  0  0  0  0  0  0  0
   -3.1410   22.6380  -29.6120 C   0  0  0  0  0  0  0  0  0  0  0  0
   -1.8650   23.1360  -29.3200 C   0  0  0  0  0  0  0  0  0  0  0  0
   -1.0710   22.5860  -28.3120 C   0  0  0  0  0  0  0  0  0  0  0  0
   -1.2310   24.4640  -30.2000 Cl  0  0  0  0  0  0  0  0  0  0  0  0
   -3.9950   23.1430  -30.7390 C   0  0  0  0  0  0  0  0  0  0  0  0
   -4.4040   22.4170  -31.6190 O   0  0  0  0  0  0  0  0  0  0  0  0
   -4.2980   24.5180  -30.6490 N   0  0  0  0  0  0  0  0  0  0  0  0
   -5.1440   25.2560  -31.5230 C   0  0  0  0  0  0  0  0  0  0  0  0
   -5.8070   24.6890  -32.6230 C   0  0  0  0  0  0  0  0  0  0  0  0
   -6.6680   25.5030  -33.3740 C   0  0  0  0  0  0  0  0  0  0  0  0
   -6.8810   26.8150  -33.1040 N   0  0  0  0  0  0  0  0  0  0  0  0
   -6.2060   27.3640  -32.0320 C   0  0  0  0  0  0  0  0  0  0  0  0
   -5.3300   26.6230  -31.2260 C   0  0  0  0  0  0  0  0  0  0  0  0
   -6.4970   28.7390  -31.8080 N   0  0  0  0  0  0  0  0  0  0  0  0
   -5.7690   29.6310  -30.9760 C   0  0  0  0  0  0  0  0  0  0  0  0
   -4.8430   29.2410  -30.2930 O   0  0  0  0  0  0  0  0  0  0  0  0
   -6.2610   31.0640  -31.0170 C   0  0  0  0  0  0  0  0  0  0  0  0
   -5.1720   20.9310  -29.1480 Cl  0  0  0  0  0  0  0  0  0  0  0  0
   -7.0410   31.2330  -31.8040 H   0  0  0  0  0  0  0  0  0  0  0  0
   -0.9440   21.0730  -26.7720 H   0  0  0  0  0  0  0  0  0  0  0  0
   -3.2140   20.1790  -27.2140 H   0  0  0  0  0  0  0  0  0  0  0  0
   -0.0770   22.9870  -28.0920 H   0  0  0  0  0  0  0  0  0  0  0  0
   -3.8920   25.0490  -29.8570 H   0  0  0  0  0  0  0  0  0  0  0  0
   -5.6870   23.6370  -32.8920 H   0  0  0  0  0  0  0  0  0  0  0  0
   -7.2230   25.0870  -34.2320 H   0  0  0  0  0  0  0  0  0  0  0  0
   -4.8050   27.0930  -30.3890 H   0  0  0  0  0  0  0  0  0  0  0  0
   -7.3810   29.0850  -32.2460 H   0  0  0  0  0  0  0  0  0  0  0  0
   -6.7660   31.2960  -30.0410 H   0  0  0  0  0  0  0  0  0  0  0  0
   -4.3670   31.6860  -31.9530 H   0  0  0  0  0  0  0  0  0  0  0  0
   -5.1030   32.0240  -31.2100 C   0  0  0  0  0  0  0  0  0  0  0  0
   -5.3760   33.5170  -31.0910 C   0  0  0  0  0  0  0  0  0  0  0  0
   -4.5700   32.8080  -30.0180 C   0  0  0  0  0  0  0  0  0  0  0  0
   -4.8590   34.2220  -31.7540 H   0  0  0  0  0  0  0  0  0  0  0  0
   -6.3940   33.8540  -30.8440 H   0  0  0  0  0  0  0  0  0  0  0  0
   -3.4900   33.0000  -29.9520 H   0  0  0  0  0  0  0  0  0  0  0  0
   -5.0220   32.6670  -29.0270 H   0  0  0  0  0  0  0  0  0  0  0  0
  1  2  2  0  0  0  0
  1  6  1  0  0  0  0
  1 23  1  0  0  0  0
  2  3  1  0  0  0  0
  2 24  1  0  0  0  0
  3  4  2  0  0  0  0
  3 21  1  0  0  0  0
  4  5  1  0  0  0  0
  4  8  1  0  0  0  0
  5  6  2  0  0  0  0
  5  7  1  0  0  0  0
  6 25  1  0  0  0  0
  8  9  2  0  0  0  0
  8 10  1  0  0  0  0
 10 11  1  0  0  0  0
 10 26  1  0  0  0  0
 11 12  2  0  0  0  0
 11 16  1  0  0  0  0
 12 13  1  0  0  0  0
 12 27  1  0  0  0  0
 13 14  2  0  0  0  0
 13 28  1  0  0  0  0
 14 15  1  0  0  0  0
 15 16  2  0  0  0  0
 15 17  1  0  0  0  0
 16 29  1  0  0  0  0
 17 18  1  0  0  0  0
 17 30  1  0  0  0  0
 18 19  2  0  0  0  0
 18 20  1  0  0  0  0
 20 22  1  0  0  0  0
 20 31  1  0  0  0  0
 20 33  1  0  0  0  0
 32 33  1  0  0  0  0
 33 34  1  0  0  0  0
 33 35  1  0  0  0  0
 34 35  1  0  0  0  0
 34 36  1  0  0  0  0
 34 37  1  0  0  0  0
 35 38  1  0  0  0  0
 35 39  1  0  0  0  0
M  END
$$$$
