CAT-13i
 OpenBabel02232411143D
Structure written by MMmdl.
 46 49  0  0  1  0  0  0  0  0999 V2000
   11.7700   -1.8310    1.1530 C   0  0  0  0  0  0  0  0  0  0  0  0
   13.0700   -2.2260    0.5810 N   0  0  0  0  0  0  0  0  0  0  0  0
   14.2430   -2.3180    1.3400 C   0  0  0  0  0  0  0  0  0  0  0  0
   14.3420   -2.2870    2.6940 N   0  0  0  0  0  0  0  0  0  0  0  0
   15.3340   -2.5340    0.5010 N   0  3  0  0  0  0  0  0  0  0  0  0
   14.8650   -2.8850   -0.8890 C   0  0  2  0  0  0  0  0  0  0  0  0
   15.1560   -4.3540   -1.2070 C   0  0  0  0  0  0  0  0  0  0  0  0
   14.6360   -5.4740   -0.3210 C   0  0  0  0  0  0  0  0  0  0  0  0
   13.7460   -5.4250    0.9130 C   0  0  0  0  0  0  0  0  0  0  0  0
   13.1970   -5.9740   -0.3830 C   0  0  0  0  0  0  0  0  0  0  0  0
   15.4340   -1.8580   -1.8650 C   0  0  0  0  0  0  0  0  0  0  0  0
   16.1420   -2.2330   -3.0110 C   0  0  0  0  0  0  0  0  0  0  0  0
   16.5920   -1.2470   -3.8990 C   0  0  0  0  0  0  0  0  0  0  0  0
   16.3470    0.1030   -3.6560 C   0  0  0  0  0  0  0  0  0  0  0  0
   15.6580    0.4940   -2.4940 C   0  0  0  0  0  0  0  0  0  0  0  0
   15.4130    1.9260   -2.2050 C   0  0  0  0  0  0  0  0  0  0  0  0
   15.6280    2.4270   -0.9110 C   0  0  0  0  0  0  0  0  0  0  0  0
   15.3430    3.7610   -0.6070 C   0  0  0  0  0  0  0  0  0  0  0  0
   14.8590    4.6200   -1.5960 C   0  0  0  0  0  0  0  0  0  0  0  0
   14.6960    4.1230   -2.8930 C   0  0  0  0  0  0  0  0  0  0  0  0
   14.1520    5.1900   -4.1260 Cl  0  0  0  0  0  0  0  0  0  0  0  0
   14.9560    2.7890   -3.2150 C   0  0  0  0  0  0  0  0  0  0  0  0
   15.2020   -0.4940   -1.6090 C   0  0  0  0  0  0  0  0  0  0  0  0
   13.3260   -2.6270   -0.8110 C   0  0  0  0  0  0  0  0  0  0  0  0
   12.4660   -2.6700   -1.6310 O   0  0  0  0  0  0  0  0  0  0  0  0
   11.6390   -2.2780    2.1750 H   0  0  0  0  0  0  0  0  0  0  0  0
   11.7380   -0.7110    1.2240 H   0  0  0  0  0  0  0  0  0  0  0  0
   10.9410   -2.1970    0.4910 H   0  0  0  0  0  0  0  0  0  0  0  0
   13.6060   -1.8770    3.3140 H   0  0  0  0  0  0  0  0  0  0  0  0
   16.2190   -2.9450    0.8990 H   0  0  0  0  0  0  0  0  0  0  0  0
   16.2780   -4.4560   -1.2350 H   0  0  0  0  0  0  0  0  0  0  0  0
   14.7540   -4.5640   -2.2370 H   0  0  0  0  0  0  0  0  0  0  0  0
   15.4140   -6.2610   -0.2750 H   0  0  0  0  0  0  0  0  0  0  0  0
   13.9830   -6.1320    1.7230 H   0  0  0  0  0  0  0  0  0  0  0  0
   13.3370   -4.5070    1.3230 H   0  0  0  0  0  0  0  0  0  0  0  0
   12.4580   -5.3880   -0.9380 H   0  0  0  0  0  0  0  0  0  0  0  0
   13.0250   -7.0570   -0.4610 H   0  0  0  0  0  0  0  0  0  0  0  0
   16.3540   -3.2790   -3.2290 H   0  0  0  0  0  0  0  0  0  0  0  0
   17.1500   -1.5360   -4.7950 H   0  0  0  0  0  0  0  0  0  0  0  0
   16.6990    0.8530   -4.3710 H   0  0  0  0  0  0  0  0  0  0  0  0
   16.0090    1.7660   -0.1320 H   0  0  0  0  0  0  0  0  0  0  0  0
   15.4920    4.1220    0.4150 H   0  0  0  0  0  0  0  0  0  0  0  0
   14.5980    5.6530   -1.3510 H   0  0  0  0  0  0  0  0  0  0  0  0
   14.7980    2.4180   -4.2330 H   0  0  0  0  0  0  0  0  0  0  0  0
   14.6680   -0.2010   -0.7050 H   0  0  0  0  0  0  0  0  0  0  0  0
   15.2970   -2.3140    3.1430 H   0  0  0  0  0  0  0  0  0  0  0  0
  1  2  1  0  0  0  0
  1 26  1  0  0  0  0
  1 27  1  0  0  0  0
  1 28  1  0  0  0  0
  2  3  1  0  0  0  0
  2 24  1  0  0  0  0
  3  4  1  0  0  0  0
  3  5  2  0  0  0  0
  4 29  1  0  0  0  0
  4 46  1  0  0  0  0
  5  6  1  0  0  0  0
  5 30  1  0  0  0  0
  6  7  1  6  0  0  0
  6 11  1  0  0  0  0
  6 24  1  0  0  0  0
  7  8  1  0  0  0  0
  7 31  1  0  0  0  0
  7 32  1  0  0  0  0
  8  9  1  0  0  0  0
  8 10  1  0  0  0  0
  8 33  1  0  0  0  0
  9 10  1  0  0  0  0
  9 34  1  0  0  0  0
  9 35  1  0  0  0  0
 10 36  1  0  0  0  0
 10 37  1  0  0  0  0
 11 12  2  0  0  0  0
 11 23  1  0  0  0  0
 12 13  1  0  0  0  0
 12 38  1  0  0  0  0
 13 14  2  0  0  0  0
 13 39  1  0  0  0  0
 14 15  1  0  0  0  0
 14 40  1  0  0  0  0
 15 16  1  0  0  0  0
 15 23  2  0  0  0  0
 16 17  2  0  0  0  0
 16 22  1  0  0  0  0
 17 18  1  0  0  0  0
 17 41  1  0  0  0  0
 18 19  2  0  0  0  0
 18 42  1  0  0  0  0
 19 20  1  0  0  0  0
 19 43  1  0  0  0  0
 20 21  1  0  0  0  0
 20 22  2  0  0  0  0
 22 44  1  0  0  0  0
 23 45  1  0  0  0  0
 24 25  2  0  0  0  0
M  CHG  1   5   1
M  END
$$$$
