18627-1
 OpenBabel02232411163D
Structure written by MMmdl.
 38 39  0  0  0  0  0  0  0  0999 V2000
   24.4590   11.0370   30.7620 C   0  0  0  0  0  0  0  0  0  0  0  0
   23.1150   11.2610   30.1030 C   0  0  0  0  0  0  0  0  0  0  0  0
   22.0420   11.2930   31.1200 O   0  0  0  0  0  0  0  0  0  0  0  0
   21.4760   10.1350   31.5270 C   0  0  0  0  0  0  0  0  0  0  0  0
   21.9660    8.9510   31.0880 N   0  0  0  0  0  0  0  0  0  0  0  0
   21.2850    7.8000   31.4550 C   0  0  0  0  0  0  0  0  0  0  0  0
   20.1550    7.8190   32.2640 C   0  0  0  0  0  0  0  0  0  0  0  0
   19.6510    9.0650   32.7280 C   0  0  0  0  0  0  0  0  0  0  0  0
   18.5120    9.0970   33.4900 N   0  0  0  0  0  0  0  0  0  0  0  0
   20.3300   10.2720   32.3660 C   0  0  0  0  0  0  0  0  0  0  0  0
   19.9110   11.5660   32.7430 C   0  0  0  0  0  0  0  0  0  0  0  0
   19.6200   12.6560   33.0130 N   0  0  0  0  0  0  0  0  0  0  0  0
   21.8730    6.6430   30.8880 N   0  0  0  0  0  0  0  0  0  0  0  0
   21.3460    5.3280   30.8890 C   0  0  0  0  0  0  0  0  0  0  0  0
   20.3160    5.0370   31.4600 O   0  0  0  0  0  0  0  0  0  0  0  0
   22.1610    4.3510   30.0530 C   0  0  0  0  0  0  0  0  0  0  0  0
   23.5150    4.0630   30.6430 C   0  0  0  0  0  0  0  0  0  0  0  0
   24.6290    4.8350   30.2760 C   0  0  0  0  0  0  0  0  0  0  0  0
   25.8850    4.5780   30.8310 C   0  0  0  0  0  0  0  0  0  0  0  0
   26.0140    3.5360   31.7520 C   0  0  0  0  0  0  0  0  0  0  0  0
   27.5600    3.2150   32.4420 Cl  0  0  0  0  0  0  0  0  0  0  0  0
   24.9260    2.7400   32.1180 C   0  0  0  0  0  0  0  0  0  0  0  0
   23.6770    3.0040   31.5510 C   0  0  0  0  0  0  0  0  0  0  0  0
   24.4850   10.0610   31.3030 H   0  0  0  0  0  0  0  0  0  0  0  0
   24.6980   11.8550   31.4740 H   0  0  0  0  0  0  0  0  0  0  0  0
   25.2530   11.0060   29.9750 H   0  0  0  0  0  0  0  0  0  0  0  0
   23.0100   12.2950   29.6940 H   0  0  0  0  0  0  0  0  0  0  0  0
   22.8850   10.4880   29.3360 H   0  0  0  0  0  0  0  0  0  0  0  0
   19.6360    6.8960   32.5310 H   0  0  0  0  0  0  0  0  0  0  0  0
   18.0210    8.2220   33.7590 H   0  0  0  0  0  0  0  0  0  0  0  0
   18.1000    9.9790   33.7940 H   0  0  0  0  0  0  0  0  0  0  0  0
   22.7520    6.8160   30.3610 H   0  0  0  0  0  0  0  0  0  0  0  0
   21.5840    3.3920   29.9650 H   0  0  0  0  0  0  0  0  0  0  0  0
   22.2780    4.7770   29.0210 H   0  0  0  0  0  0  0  0  0  0  0  0
   24.5390    5.6420   29.5430 H   0  0  0  0  0  0  0  0  0  0  0  0
   26.7480    5.1850   30.5380 H   0  0  0  0  0  0  0  0  0  0  0  0
   25.0450    1.9160   32.8300 H   0  0  0  0  0  0  0  0  0  0  0  0
   22.8310    2.3640   31.8150 H   0  0  0  0  0  0  0  0  0  0  0  0
  1  2  1  0  0  0  0
  1 24  1  0  0  0  0
  1 25  1  0  0  0  0
  1 26  1  0  0  0  0
  2  3  1  0  0  0  0
  2 27  1  0  0  0  0
  2 28  1  0  0  0  0
  3  4  1  0  0  0  0
  4 10  2  0  0  0  0
  4  5  1  0  0  0  0
  5  6  2  0  0  0  0
  6  7  1  0  0  0  0
  6 13  1  0  0  0  0
  7  8  2  0  0  0  0
  7 29  1  0  0  0  0
  8  9  1  0  0  0  0
  8 10  1  0  0  0  0
  9 30  1  0  0  0  0
  9 31  1  0  0  0  0
 10 11  1  0  0  0  0
 11 12  3  0  0  0  0
 13 14  1  0  0  0  0
 13 32  1  0  0  0  0
 14 15  2  0  0  0  0
 14 16  1  0  0  0  0
 16 17  1  0  0  0  0
 16 33  1  0  0  0  0
 16 34  1  0  0  0  0
 17 23  2  0  0  0  0
 17 18  1  0  0  0  0
 18 19  2  0  0  0  0
 18 35  1  0  0  0  0
 19 20  1  0  0  0  0
 19 36  1  0  0  0  0
 20 21  1  0  0  0  0
 20 22  2  0  0  0  0
 22 23  1  0  0  0  0
 22 37  1  0  0  0  0
 23 38  1  0  0  0  0
M  END
$$$$
