CAT-13e
 OpenBabel02232411143D
Structure written by MMmdl.
 46 49  0  0  1  0  0  0  0  0999 V2000
   11.6150   -2.3840    1.2190 C   0  0  0  0  0  0  0  0  0  0  0  0
   12.9290   -2.2710    0.5510 N   0  0  0  0  0  0  0  0  0  0  0  0
   14.1480   -2.2230    1.2190 C   0  0  0  0  0  0  0  0  0  0  0  0
   14.3400   -2.3020    2.5650 N   0  0  0  0  0  0  0  0  0  0  0  0
   15.2000   -2.1110    0.2900 N   0  3  0  0  0  0  0  0  0  0  0  0
   14.6930   -2.4640   -1.0950 C   0  0  1  0  0  0  0  0  0  0  0  0
   15.1210   -1.4230   -2.1180 C   0  0  0  0  0  0  0  0  0  0  0  0
   15.5170   -1.8000   -3.4100 C   0  0  0  0  0  0  0  0  0  0  0  0
   15.9010   -0.8250   -4.3340 C   0  0  0  0  0  0  0  0  0  0  0  0
   15.8480    0.5290   -4.0030 C   0  0  0  0  0  0  0  0  0  0  0  0
   15.4020    0.9220   -2.7300 C   0  0  0  0  0  0  0  0  0  0  0  0
   15.2290    2.3520   -2.3960 C   0  0  0  0  0  0  0  0  0  0  0  0
   15.6080    2.8470   -1.1390 C   0  0  0  0  0  0  0  0  0  0  0  0
   15.3200    4.1680   -0.7820 C   0  0  0  0  0  0  0  0  0  0  0  0
   14.6850    5.0210   -1.6870 C   0  0  0  0  0  0  0  0  0  0  0  0
   14.3750    4.5340   -2.9610 C   0  0  0  0  0  0  0  0  0  0  0  0
   13.6510    5.5910   -4.1060 Cl  0  0  0  0  0  0  0  0  0  0  0  0
   14.6240    3.2120   -3.3290 C   0  0  0  0  0  0  0  0  0  0  0  0
   15.0640   -0.0610   -1.7850 C   0  0  0  0  0  0  0  0  0  0  0  0
   15.0520   -3.9100   -1.4780 C   0  0  0  0  0  0  0  0  0  0  0  0
   16.5700   -4.1370   -1.7050 C   0  0  0  0  0  0  0  0  0  0  0  0
   16.5750   -5.1880   -0.5770 C   0  0  0  0  0  0  0  0  0  0  0  0
   15.0600   -4.9780   -0.3470 C   0  0  0  0  0  0  0  0  0  0  0  0
   13.1470   -2.3820   -0.9080 C   0  0  0  0  0  0  0  0  0  0  0  0
   12.2410   -2.3810   -1.6790 O   0  0  0  0  0  0  0  0  0  0  0  0
   11.0240   -3.2070    0.7310 H   0  0  0  0  0  0  0  0  0  0  0  0
   11.0630   -1.4110    1.1240 H   0  0  0  0  0  0  0  0  0  0  0  0
   11.7370   -2.6370    2.3050 H   0  0  0  0  0  0  0  0  0  0  0  0
   13.6270   -1.9710    3.2610 H   0  0  0  0  0  0  0  0  0  0  0  0
   16.1440   -2.4660    0.6120 H   0  0  0  0  0  0  0  0  0  0  0  0
   15.5360   -2.8470   -3.7150 H   0  0  0  0  0  0  0  0  0  0  0  0
   16.2510   -1.1290   -5.3270 H   0  0  0  0  0  0  0  0  0  0  0  0
   16.1590    1.2750   -4.7430 H   0  0  0  0  0  0  0  0  0  0  0  0
   16.1100    2.1920   -0.4240 H   0  0  0  0  0  0  0  0  0  0  0  0
   15.5790    4.5180    0.2210 H   0  0  0  0  0  0  0  0  0  0  0  0
   14.4180    6.0380   -1.3950 H   0  0  0  0  0  0  0  0  0  0  0  0
   14.3390    2.8450   -4.3210 H   0  0  0  0  0  0  0  0  0  0  0  0
   14.7600    0.2290   -0.7800 H   0  0  0  0  0  0  0  0  0  0  0  0
   14.4290   -4.2360   -2.3380 H   0  0  0  0  0  0  0  0  0  0  0  0
   17.1950   -3.2530   -1.4730 H   0  0  0  0  0  0  0  0  0  0  0  0
   16.8230   -4.5310   -2.6970 H   0  0  0  0  0  0  0  0  0  0  0  0
   16.8530   -6.2090   -0.8650 H   0  0  0  0  0  0  0  0  0  0  0  0
   17.2020   -4.8420    0.2520 H   0  0  0  0  0  0  0  0  0  0  0  0
   14.8090   -4.6210    0.6640 H   0  0  0  0  0  0  0  0  0  0  0  0
   14.4370   -5.8590   -0.5880 H   0  0  0  0  0  0  0  0  0  0  0  0
   15.3240   -2.2800    2.9510 H   0  0  0  0  0  0  0  0  0  0  0  0
  1  2  1  0  0  0  0
  1 26  1  0  0  0  0
  1 27  1  0  0  0  0
  1 28  1  0  0  0  0
  2  3  1  0  0  0  0
  2 24  1  0  0  0  0
  3  4  1  0  0  0  0
  3  5  2  0  0  0  0
  4 29  1  0  0  0  0
  4 46  1  0  0  0  0
  5  6  1  0  0  0  0
  5 30  1  0  0  0  0
  6  7  1  6  0  0  0
  6 20  1  0  0  0  0
  6 24  1  0  0  0  0
  7  8  2  0  0  0  0
  7 19  1  0  0  0  0
  8  9  1  0  0  0  0
  8 31  1  0  0  0  0
  9 10  2  0  0  0  0
  9 32  1  0  0  0  0
 10 11  1  0  0  0  0
 10 33  1  0  0  0  0
 11 12  1  0  0  0  0
 11 19  2  0  0  0  0
 12 13  2  0  0  0  0
 12 18  1  0  0  0  0
 13 14  1  0  0  0  0
 13 34  1  0  0  0  0
 14 15  2  0  0  0  0
 14 35  1  0  0  0  0
 15 16  1  0  0  0  0
 15 36  1  0  0  0  0
 16 17  1  0  0  0  0
 16 18  2  0  0  0  0
 18 37  1  0  0  0  0
 19 38  1  0  0  0  0
 20 21  1  0  0  0  0
 20 23  1  0  0  0  0
 20 39  1  0  0  0  0
 21 22  1  0  0  0  0
 21 40  1  0  0  0  0
 21 41  1  0  0  0  0
 22 23  1  0  0  0  0
 22 42  1  0  0  0  0
 22 43  1  0  0  0  0
 23 44  1  0  0  0  0
 23 45  1  0  0  0  0
 24 25  2  0  0  0  0
M  CHG  1   5   1
M  END
$$$$
