18659-1
 OpenBabel02232411163D
Structure written by MMmdl.
 50 51  0  0  0  0  0  0  0  0999 V2000
   22.6550   13.8890   28.8570 C   0  0  0  0  0  0  0  0  0  0  0  0
   23.0280   13.6770   30.2350 O   0  0  0  0  0  0  0  0  0  0  0  0
   23.9360   12.5840   30.4390 C   0  0  0  0  0  0  0  0  0  0  0  0
   23.2770   11.2010   30.3410 C   0  0  0  0  0  0  0  0  0  0  0  0
   22.1290   11.2740   31.2620 O   0  0  0  0  0  0  0  0  0  0  0  0
   21.5050   10.1220   31.5990 C   0  0  0  0  0  0  0  0  0  0  0  0
   21.9640    8.9430   31.1200 N   0  0  0  0  0  0  0  0  0  0  0  0
   21.2460    7.8000   31.4460 C   0  0  0  0  0  0  0  0  0  0  0  0
   20.1130    7.8290   32.2520 C   0  0  0  0  0  0  0  0  0  0  0  0
   19.6430    9.0710   32.7530 C   0  0  0  0  0  0  0  0  0  0  0  0
   18.5060    9.1040   33.5210 N   0  0  0  0  0  0  0  0  0  0  0  0
   20.3500   10.2720   32.4240 C   0  0  0  0  0  0  0  0  0  0  0  0
   19.9520   11.5660   32.8210 C   0  0  0  0  0  0  0  0  0  0  0  0
   19.6740   12.6560   33.1030 N   0  0  0  0  0  0  0  0  0  0  0  0
   21.7970    6.6440   30.8510 N   0  0  0  0  0  0  0  0  0  0  0  0
   21.2010    5.3630   30.7800 C   0  0  0  0  0  0  0  0  0  0  0  0
   20.1380    5.1030   31.3010 O   0  0  0  0  0  0  0  0  0  0  0  0
   21.9920    4.3800   29.9280 C   0  0  0  0  0  0  0  0  0  0  0  0
   23.3240    4.0340   30.5270 C   0  0  0  0  0  0  0  0  0  0  0  0
   24.4510    4.8580   30.2990 C   0  0  0  0  0  0  0  0  0  0  0  0
   24.1800    5.9370   29.4630 O   0  0  0  0  0  0  0  0  0  0  0  0
   25.1950    6.9690   29.3440 C   0  0  0  0  0  0  0  0  0  0  0  0
   25.7020    4.5680   30.8570 C   0  0  0  0  0  0  0  0  0  0  0  0
   25.8490    3.4360   31.6540 C   0  0  0  0  0  0  0  0  0  0  0  0
   24.7360    2.6000   31.8680 C   0  0  0  0  0  0  0  0  0  0  0  0
   23.4820    2.8850   31.3080 C   0  0  0  0  0  0  0  0  0  0  0  0
   25.0240    1.5250   32.6850 O   0  0  0  0  0  0  0  0  0  0  0  0
   24.0280    0.4750   32.7960 C   0  0  0  0  0  0  0  0  0  0  0  0
   23.5630   14.0550   28.2340 H   0  0  0  0  0  0  0  0  0  0  0  0
   22.0710   13.0200   28.4840 H   0  0  0  0  0  0  0  0  0  0  0  0
   22.0360   14.8110   28.9240 H   0  0  0  0  0  0  0  0  0  0  0  0
   24.2930   12.7840   31.4780 H   0  0  0  0  0  0  0  0  0  0  0  0
   24.7810   12.6220   29.7060 H   0  0  0  0  0  0  0  0  0  0  0  0
   22.8740   10.9780   29.3280 H   0  0  0  0  0  0  0  0  0  0  0  0
   23.9870   10.4050   30.6760 H   0  0  0  0  0  0  0  0  0  0  0  0
   19.5660    6.9130   32.4890 H   0  0  0  0  0  0  0  0  0  0  0  0
   18.0130    8.2300   33.7850 H   0  0  0  0  0  0  0  0  0  0  0  0
   18.1110    9.9850   33.8490 H   0  0  0  0  0  0  0  0  0  0  0  0
   22.7110    6.7900   30.3500 H   0  0  0  0  0  0  0  0  0  0  0  0
   21.3820    3.4500   29.7940 H   0  0  0  0  0  0  0  0  0  0  0  0
   22.1570    4.8470   28.9180 H   0  0  0  0  0  0  0  0  0  0  0  0
   26.0710    6.5650   28.7930 H   0  0  0  0  0  0  0  0  0  0  0  0
   25.4760    7.3600   30.3450 H   0  0  0  0  0  0  0  0  0  0  0  0
   24.6600    7.7420   28.7460 H   0  0  0  0  0  0  0  0  0  0  0  0
   26.5690    5.2070   30.6720 H   0  0  0  0  0  0  0  0  0  0  0  0
   26.8190    3.1990   32.0980 H   0  0  0  0  0  0  0  0  0  0  0  0
   22.6340    2.2220   31.4770 H   0  0  0  0  0  0  0  0  0  0  0  0
   24.5630   -0.2750   33.4270 H   0  0  0  0  0  0  0  0  0  0  0  0
   23.1220    0.8580   33.3120 H   0  0  0  0  0  0  0  0  0  0  0  0
   23.8000    0.0590   31.7910 H   0  0  0  0  0  0  0  0  0  0  0  0
  1  2  1  0  0  0  0
  1 29  1  0  0  0  0
  1 30  1  0  0  0  0
  1 31  1  0  0  0  0
  2  3  1  0  0  0  0
  3  4  1  0  0  0  0
  3 32  1  0  0  0  0
  3 33  1  0  0  0  0
  4  5  1  0  0  0  0
  4 34  1  0  0  0  0
  4 35  1  0  0  0  0
  5  6  1  0  0  0  0
  6 12  2  0  0  0  0
  6  7  1  0  0  0  0
  7  8  2  0  0  0  0
  8  9  1  0  0  0  0
  8 15  1  0  0  0  0
  9 10  2  0  0  0  0
  9 36  1  0  0  0  0
 10 11  1  0  0  0  0
 10 12  1  0  0  0  0
 11 37  1  0  0  0  0
 11 38  1  0  0  0  0
 12 13  1  0  0  0  0
 13 14  3  0  0  0  0
 15 16  1  0  0  0  0
 15 39  1  0  0  0  0
 16 17  2  0  0  0  0
 16 18  1  0  0  0  0
 18 19  1  0  0  0  0
 18 40  1  0  0  0  0
 18 41  1  0  0  0  0
 19 26  2  0  0  0  0
 19 20  1  0  0  0  0
 20 21  1  0  0  0  0
 20 23  2  0  0  0  0
 21 22  1  0  0  0  0
 22 42  1  0  0  0  0
 22 43  1  0  0  0  0
 22 44  1  0  0  0  0
 23 24  1  0  0  0  0
 23 45  1  0  0  0  0
 24 25  2  0  0  0  0
 24 46  1  0  0  0  0
 25 26  1  0  0  0  0
 25 27  1  0  0  0  0
 26 47  1  0  0  0  0
 27 28  1  0  0  0  0
 28 48  1  0  0  0  0
 28 49  1  0  0  0  0
 28 50  1  0  0  0  0
M  END
$$$$
