p38a_2s
 OpenBabel02232411163D
Structure written by MMmdl.
 54 57  0  0  1  0  0  0  0  0999 V2000
   38.3010   36.5740   17.0630 C   0  0  0  0  0  0  0  0  0  0  0  0
   34.2900   34.7540   20.7930 C   0  0  0  0  0  0  0  0  0  0  0  0
   37.4970   36.0390   18.0650 C   0  0  0  0  0  0  0  0  0  0  0  0
   33.4870   38.6550   23.5430 C   0  0  0  0  0  0  0  0  0  0  0  0
   34.3640   37.6090   21.1520 C   0  0  0  0  0  0  0  0  0  0  0  0
   34.9150   37.0340   19.9570 C   0  0  0  0  0  0  0  0  0  0  0  0
   37.6900   36.7760   15.8180 C   0  0  0  0  0  0  0  0  0  0  0  0
   36.3560   36.4580   15.5510 C   0  0  0  0  0  0  0  0  0  0  0  0
   35.5780   35.8920   16.5650 C   0  0  0  0  0  0  0  0  0  0  0  0
   33.7890   36.7750   22.1580 C   0  0  0  0  0  0  0  0  0  0  0  0
   34.4050   39.0070   21.4110 C   0  0  0  0  0  0  0  0  0  0  0  0
   34.9080   35.6880   19.8200 C   0  0  0  0  0  0  0  0  0  0  0  0
   36.1590   35.6670   17.8160 C   0  0  0  0  0  0  0  0  0  0  0  0
   37.9790   35.8780   19.2900 F   0  0  0  0  0  0  0  0  0  0  0  0
   35.4430   34.9390   18.7740 O   0  0  0  0  0  0  0  0  0  0  0  0
   33.9850   39.5410   22.5650 N   0  0  0  0  0  0  0  0  0  0  0  0
   34.2620   33.5460   20.6900 O   0  0  0  0  0  0  0  0  0  0  0  0
   33.6810   35.3850   21.9360 N   0  0  0  0  0  0  0  0  0  0  0  0
   33.3690   37.2880   23.3570 N   0  0  0  0  0  0  0  0  0  0  0  0
   33.0570   39.2220   24.7210 N   0  0  0  0  0  0  0  0  0  0  0  0
   39.3410   36.8570   17.2480 H   0  0  0  0  0  0  0  0  0  0  0  0
   35.3390   37.7050   19.2070 H   0  0  0  0  0  0  0  0  0  0  0  0
   35.9100   36.6590   14.5760 H   0  0  0  0  0  0  0  0  0  0  0  0
   34.5280   35.6460   16.3780 H   0  0  0  0  0  0  0  0  0  0  0  0
   34.8040   39.7030   20.6510 H   0  0  0  0  0  0  0  0  0  0  0  0
   33.2450   40.2340   24.8860 H   0  0  0  0  0  0  0  0  0  0  0  0
   38.4060   37.3380   14.8480 F   0  0  0  0  0  0  0  0  0  0  0  0
   31.4390   38.4210   28.0850 C   0  0  0  0  0  0  0  0  0  0  0  0
   31.6870   39.1610   26.7650 C   0  0  0  0  0  0  0  0  0  0  0  0
   32.7580   38.4130   25.9420 C   0  0  0  0  0  0  0  0  0  0  0  0
   34.0380   38.2150   26.7850 C   0  0  0  0  0  0  0  0  0  0  0  0
   33.6860   37.5290   28.1110 C   0  0  0  0  0  0  0  0  0  0  0  0
   32.6640   38.2500   28.8350 O   0  0  0  0  0  0  0  0  0  0  0  0
   30.9820   37.4210   27.9030 H   0  0  0  0  0  0  0  0  0  0  0  0
   30.8190   39.0280   28.7830 H   0  0  0  0  0  0  0  0  0  0  0  0
   32.0340   40.2010   26.9750 H   0  0  0  0  0  0  0  0  0  0  0  0
   30.7380   39.2150   26.1810 H   0  0  0  0  0  0  0  0  0  0  0  0
   32.3540   37.4110   25.6270 H   0  0  0  0  0  0  0  0  0  0  0  0
   34.7680   37.5780   26.2290 H   0  0  0  0  0  0  0  0  0  0  0  0
   34.5200   39.2020   26.9840 H   0  0  0  0  0  0  0  0  0  0  0  0
   33.3370   36.4830   27.9400 H   0  0  0  0  0  0  0  0  0  0  0  0
   34.5460   37.5590   28.8200 H   0  0  0  0  0  0  0  0  0  0  0  0
   32.9340   34.4980   22.8820 C   0  0  0  0  0  0  0  0  0  0  0  0
   33.5590   33.5830   23.0740 H   0  0  0  0  0  0  0  0  0  0  0  0
   32.7730   35.0300   23.8680 H   0  0  0  0  0  0  0  0  0  0  0  0
   31.5570   34.1130   22.3060 C   0  0  2  0  0  0  0  0  0  0  0  0
   30.6040   34.6970   23.2090 O   0  0  0  0  0  0  0  0  0  0  0  0
   29.6860   34.4450   22.8910 H   0  0  0  0  0  0  0  0  0  0  0  0
   31.2830   32.5930   22.2450 C   0  0  0  0  0  0  0  0  0  0  0  0
   31.5400   32.0670   23.1920 H   0  0  0  0  0  0  0  0  0  0  0  0
   31.7490   32.1240   21.3530 H   0  0  0  0  0  0  0  0  0  0  0  0
   31.3620   34.5370   21.2950 H   0  0  0  0  0  0  0  0  0  0  0  0
   29.8520   32.4600   22.1650 O   0  0  0  0  0  0  0  0  0  0  0  0
   29.5610   32.6120   21.2080 H   0  0  0  0  0  0  0  0  0  0  0  0
  1  3  2  0  0  0  0
  1  7  1  0  0  0  0
  1 21  1  0  0  0  0
  2 12  1  0  0  0  0
  2 17  2  0  0  0  0
  2 18  1  0  0  0  0
  3 13  1  0  0  0  0
  3 14  1  0  0  0  0
  4 16  2  0  0  0  0
  4 19  1  0  0  0  0
  4 20  1  0  0  0  0
  5  6  1  0  0  0  0
  5 10  1  0  0  0  0
  5 11  2  0  0  0  0
  6 12  2  0  0  0  0
  6 22  1  0  0  0  0
  7  8  2  0  0  0  0
  7 27  1  0  0  0  0
  8  9  1  0  0  0  0
  8 23  1  0  0  0  0
  9 13  2  0  0  0  0
  9 24  1  0  0  0  0
 10 18  1  0  0  0  0
 10 19  2  0  0  0  0
 11 16  1  0  0  0  0
 11 25  1  0  0  0  0
 12 15  1  0  0  0  0
 13 15  1  0  0  0  0
 18 43  1  0  0  0  0
 20 26  1  0  0  0  0
 20 30  1  0  0  0  0
 28 29  1  0  0  0  0
 28 33  1  0  0  0  0
 28 34  1  0  0  0  0
 28 35  1  0  0  0  0
 29 30  1  0  0  0  0
 29 36  1  0  0  0  0
 29 37  1  0  0  0  0
 30 31  1  0  0  0  0
 30 38  1  0  0  0  0
 31 32  1  0  0  0  0
 31 39  1  0  0  0  0
 31 40  1  0  0  0  0
 32 33  1  0  0  0  0
 32 41  1  0  0  0  0
 32 42  1  0  0  0  0
 43 44  1  0  0  0  0
 43 45  1  0  0  0  0
 43 46  1  0  0  0  0
 46 47  1  0  0  0  0
 46 49  1  0  0  0  0
 46 52  1  1  0  0  0
 47 48  1  0  0  0  0
 49 50  1  0  0  0  0
 49 51  1  0  0  0  0
 49 53  1  0  0  0  0
 53 54  1  0  0  0  0
M  END
$$$$
