ejm_31
 OpenBabel02232411173D
Structure written by MMmdl.
 32 33  0  0  0  0  0  0  0  0999 V2000
   -1.5420   21.5160  -27.5870 C   0  0  0  0  0  0  0  0  0  0  0  0
   -1.0680   22.5940  -28.3380 C   0  0  0  0  0  0  0  0  0  0  0  0
   -1.8740   23.1350  -29.3430 C   0  0  0  0  0  0  0  0  0  0  0  0
   -3.1440   22.6200  -29.6290 C   0  0  0  0  0  0  0  0  0  0  0  0
   -3.5990   21.5460  -28.8470 C   0  0  0  0  0  0  0  0  0  0  0  0
   -2.8140   20.9930  -27.8350 C   0  0  0  0  0  0  0  0  0  0  0  0
   -5.1550   20.8950  -29.1500 Cl  0  0  0  0  0  0  0  0  0  0  0  0
   -4.0110   23.1130  -30.7500 C   0  0  0  0  0  0  0  0  0  0  0  0
   -4.4120   22.3830  -31.6310 O   0  0  0  0  0  0  0  0  0  0  0  0
   -4.3360   24.4820  -30.6540 N   0  0  0  0  0  0  0  0  0  0  0  0
   -5.1900   25.2140  -31.5260 C   0  0  0  0  0  0  0  0  0  0  0  0
   -5.8630   24.6430  -32.6180 C   0  0  0  0  0  0  0  0  0  0  0  0
   -6.7230   25.4570  -33.3690 C   0  0  0  0  0  0  0  0  0  0  0  0
   -6.9270   26.7730  -33.1080 N   0  0  0  0  0  0  0  0  0  0  0  0
   -6.2430   27.3240  -32.0420 C   0  0  0  0  0  0  0  0  0  0  0  0
   -5.3690   26.5830  -31.2350 C   0  0  0  0  0  0  0  0  0  0  0  0
   -6.5160   28.7030  -31.8220 N   0  0  0  0  0  0  0  0  0  0  0  0
   -5.7470   29.5950  -31.0290 C   0  0  0  0  0  0  0  0  0  0  0  0
   -4.7910   29.1990  -30.3880 O   0  0  0  0  0  0  0  0  0  0  0  0
   -6.2100   31.0180  -31.0520 C   0  0  0  0  0  0  0  0  0  0  0  0
   -1.2640   24.4750  -30.2190 Cl  0  0  0  0  0  0  0  0  0  0  0  0
   -7.1720   31.1830  -31.5960 H   0  0  0  0  0  0  0  0  0  0  0  0
   -0.9150   21.0840  -26.7990 H   0  0  0  0  0  0  0  0  0  0  0  0
   -0.0770   23.0070  -28.1240 H   0  0  0  0  0  0  0  0  0  0  0  0
   -3.1770   20.1640  -27.2260 H   0  0  0  0  0  0  0  0  0  0  0  0
   -3.9330   25.0160  -29.8630 H   0  0  0  0  0  0  0  0  0  0  0  0
   -5.7500   23.5880  -32.8810 H   0  0  0  0  0  0  0  0  0  0  0  0
   -7.2830   25.0410  -34.2230 H   0  0  0  0  0  0  0  0  0  0  0  0
   -4.8390   27.0550  -30.4020 H   0  0  0  0  0  0  0  0  0  0  0  0
   -7.3970   29.0650  -32.2520 H   0  0  0  0  0  0  0  0  0  0  0  0
   -5.4370   31.6620  -31.5510 H   0  0  0  0  0  0  0  0  0  0  0  0
   -6.3330   31.4120  -30.0120 H   0  0  0  0  0  0  0  0  0  0  0  0
  1  2  2  0  0  0  0
  1  6  1  0  0  0  0
  1 23  1  0  0  0  0
  2  3  1  0  0  0  0
  2 24  1  0  0  0  0
  3  4  2  0  0  0  0
  3 21  1  0  0  0  0
  4  5  1  0  0  0  0
  4  8  1  0  0  0  0
  5  6  2  0  0  0  0
  5  7  1  0  0  0  0
  6 25  1  0  0  0  0
  8  9  2  0  0  0  0
  8 10  1  0  0  0  0
 10 11  1  0  0  0  0
 10 26  1  0  0  0  0
 11 12  2  0  0  0  0
 11 16  1  0  0  0  0
 12 13  1  0  0  0  0
 12 27  1  0  0  0  0
 13 14  2  0  0  0  0
 13 28  1  0  0  0  0
 14 15  1  0  0  0  0
 15 16  2  0  0  0  0
 15 17  1  0  0  0  0
 16 29  1  0  0  0  0
 17 18  1  0  0  0  0
 17 30  1  0  0  0  0
 18 19  2  0  0  0  0
 18 20  1  0  0  0  0
 20 22  1  0  0  0  0
 20 31  1  0  0  0  0
 20 32  1  0  0  0  0
M  END
$$$$
