p38a_2x
 OpenBabel02232411163D
Structure written by MMmdl.
 43 46  0  0  1  0  0  0  0  0999 V2000
   36.3640   36.0080   15.8430 C   0  0  0  0  0  0  0  0  0  0  0  0
   34.5090   35.0030   21.3690 C   0  0  0  0  0  0  0  0  0  0  0  0
   35.6940   35.5390   16.9690 C   0  0  0  0  0  0  0  0  0  0  0  0
   34.0320   39.0970   23.8990 C   0  0  0  0  0  0  0  0  0  0  0  0
   34.7780   37.8590   21.5520 C   0  0  0  0  0  0  0  0  0  0  0  0
   35.2310   37.1850   20.3650 C   0  0  0  0  0  0  0  0  0  0  0  0
   37.6540   36.5120   16.0490 C   0  0  0  0  0  0  0  0  0  0  0  0
   38.2860   36.5250   17.2960 C   0  0  0  0  0  0  0  0  0  0  0  0
   37.5790   36.0800   18.4180 C   0  0  0  0  0  0  0  0  0  0  0  0
   34.2840   37.1140   22.6630 C   0  0  0  0  0  0  0  0  0  0  0  0
   34.8090   39.2730   21.6900 C   0  0  0  0  0  0  0  0  0  0  0  0
   35.1330   35.8370   20.3070 C   0  0  0  0  0  0  0  0  0  0  0  0
   36.2810   35.5890   18.2500 C   0  0  0  0  0  0  0  0  0  0  0  0
   33.6390   34.9510   23.7340 C   0  0  0  0  0  0  0  0  0  0  0  0
   34.4800   35.0150   16.8610 F   0  0  0  0  0  0  0  0  0  0  0  0
   35.5370   34.9920   19.2760 O   0  0  0  0  0  0  0  0  0  0  0  0
   34.4510   39.9010   22.8180 N   0  0  0  0  0  0  0  0  0  0  0  0
   34.2840   33.8160   21.2840 O   0  0  0  0  0  0  0  0  0  0  0  0
   34.1630   35.7180   22.5690 N   0  0  0  0  0  0  0  0  0  0  0  0
   33.9100   37.7270   23.8370 N   0  0  0  0  0  0  0  0  0  0  0  0
   33.8010   39.7740   25.0840 N   0  0  0  0  0  0  0  0  0  0  0  0
   35.9000   36.0090   14.8540 H   0  0  0  0  0  0  0  0  0  0  0  0
   35.6510   37.7910   19.5580 H   0  0  0  0  0  0  0  0  0  0  0  0
   39.3060   36.9050   17.4020 H   0  0  0  0  0  0  0  0  0  0  0  0
   38.0370   36.1420   19.4080 H   0  0  0  0  0  0  0  0  0  0  0  0
   35.1250   39.9000   20.8410 H   0  0  0  0  0  0  0  0  0  0  0  0
   34.2400   35.1940   24.6520 H   0  0  0  0  0  0  0  0  0  0  0  0
   32.5680   35.2260   23.9210 H   0  0  0  0  0  0  0  0  0  0  0  0
   33.7100   33.8490   23.5360 H   0  0  0  0  0  0  0  0  0  0  0  0
   33.8290   40.8180   25.0470 H   0  0  0  0  0  0  0  0  0  0  0  0
   38.2940   37.0370   15.0060 F   0  0  0  0  0  0  0  0  0  0  0  0
   32.6370   37.2910   27.5280 O   0  0  0  0  0  0  0  0  0  0  0  0
   31.4870   37.3900   26.6390 C   0  0  0  0  0  0  0  0  0  0  0  0
   31.6050   38.7200   25.8790 C   0  0  0  0  0  0  0  0  0  0  0  0
   33.0080   39.2710   26.2340 C   0  0  1  0  0  0  0  0  0  0  0  0
   33.7050   38.1200   27.0080 C   0  0  0  0  0  0  0  0  0  0  0  0
   30.6100   37.3540   27.3210 H   0  0  0  0  0  0  0  0  0  0  0  0
   31.5200   36.5150   25.9540 H   0  0  0  0  0  0  0  0  0  0  0  0
   31.4870   38.5590   24.7850 H   0  0  0  0  0  0  0  0  0  0  0  0
   30.8200   39.4380   26.2010 H   0  0  0  0  0  0  0  0  0  0  0  0
   32.9000   40.1670   26.9150 H   0  0  0  0  0  0  0  0  0  0  0  0
   34.2480   38.4800   27.9080 H   0  0  0  0  0  0  0  0  0  0  0  0
   34.3480   37.4900   26.3550 H   0  0  0  0  0  0  0  0  0  0  0  0
  1  3  2  0  0  0  0
  1  7  1  0  0  0  0
  1 22  1  0  0  0  0
  2 12  1  0  0  0  0
  2 18  2  0  0  0  0
  2 19  1  0  0  0  0
  3 13  1  0  0  0  0
  3 15  1  0  0  0  0
  4 17  2  0  0  0  0
  4 20  1  0  0  0  0
  4 21  1  0  0  0  0
  5  6  1  0  0  0  0
  5 10  1  0  0  0  0
  5 11  2  0  0  0  0
  6 12  2  0  0  0  0
  6 23  1  0  0  0  0
  7  8  2  0  0  0  0
  7 31  1  0  0  0  0
  8  9  1  0  0  0  0
  8 24  1  0  0  0  0
  9 13  2  0  0  0  0
  9 25  1  0  0  0  0
 10 19  1  0  0  0  0
 10 20  2  0  0  0  0
 11 17  1  0  0  0  0
 11 26  1  0  0  0  0
 12 16  1  0  0  0  0
 13 16  1  0  0  0  0
 14 19  1  0  0  0  0
 14 27  1  0  0  0  0
 14 28  1  0  0  0  0
 14 29  1  0  0  0  0
 21 30  1  0  0  0  0
 21 35  1  0  0  0  0
 32 33  1  0  0  0  0
 32 36  1  0  0  0  0
 33 34  1  0  0  0  0
 33 37  1  0  0  0  0
 33 38  1  0  0  0  0
 34 35  1  0  0  0  0
 34 39  1  0  0  0  0
 34 40  1  0  0  0  0
 35 36  1  0  0  0  0
 35 41  1  1  0  0  0
 36 42  1  0  0  0  0
 36 43  1  0  0  0  0
M  END
$$$$
