CAT-17i
 OpenBabel02232411143D
Structure written by MMmdl.
 45 48  0  0  1  0  0  0  0  0999 V2000
   15.2080    4.5500    0.9040 C   0  0  0  0  0  0  0  0  0  0  0  0
   15.2510    4.1080   -0.5200 C   0  0  0  0  0  0  0  0  0  0  0  0
   14.7370    4.9150   -1.5620 C   0  0  0  0  0  0  0  0  0  0  0  0
   14.7060    4.5100   -2.8550 N   0  0  0  0  0  0  0  0  0  0  0  0
   15.1250    3.2550   -3.1580 C   0  0  0  0  0  0  0  0  0  0  0  0
   15.6110    2.3620   -2.1770 C   0  0  0  0  0  0  0  0  0  0  0  0
   15.8440    0.9380   -2.4910 C   0  0  0  0  0  0  0  0  0  0  0  0
   16.2470    0.4930   -3.7630 C   0  0  0  0  0  0  0  0  0  0  0  0
   16.2750   -0.8730   -4.0470 C   0  0  0  0  0  0  0  0  0  0  0  0
   15.8930   -1.8200   -3.0890 C   0  0  0  0  0  0  0  0  0  0  0  0
   15.5550   -1.3980   -1.7990 C   0  0  0  0  0  0  0  0  0  0  0  0
   15.0460   -2.3330   -0.7270 C   0  0  1  0  0  0  0  0  0  0  0  0
   15.3870   -3.8090   -0.6480 C   0  0  0  0  0  0  0  0  0  0  0  0
   14.8940   -4.8150   -1.6640 C   0  0  0  0  0  0  0  0  0  0  0  0
   16.3800   -4.5840   -1.4950 C   0  0  0  0  0  0  0  0  0  0  0  0
   15.3580   -1.8200    0.6730 N   0  3  0  0  0  0  0  0  0  0  0  0
   14.2170   -2.0870    1.4710 C   0  0  0  0  0  0  0  0  0  0  0  0
   14.2910   -2.3250    2.8090 N   0  0  0  0  0  0  0  0  0  0  0  0
   13.0800   -2.1650    0.6810 N   0  0  0  0  0  0  0  0  0  0  0  0
   11.7500   -2.4980    1.2310 C   0  0  0  0  0  0  0  0  0  0  0  0
   13.4740   -2.2590   -0.7510 C   0  0  0  0  0  0  0  0  0  0  0  0
   12.6720   -2.2500   -1.6240 O   0  0  0  0  0  0  0  0  0  0  0  0
   15.5460   -0.0230   -1.5110 C   0  0  0  0  0  0  0  0  0  0  0  0
   15.7260    2.8360   -0.8590 C   0  0  0  0  0  0  0  0  0  0  0  0
   14.2510    4.1880    1.3580 H   0  0  0  0  0  0  0  0  0  0  0  0
   16.0440    4.1030    1.4970 H   0  0  0  0  0  0  0  0  0  0  0  0
   15.2480    5.6580    1.0030 H   0  0  0  0  0  0  0  0  0  0  0  0
   14.3210    5.9100   -1.3480 H   0  0  0  0  0  0  0  0  0  0  0  0
   15.0430    2.9520   -4.2140 H   0  0  0  0  0  0  0  0  0  0  0  0
   16.5340    1.2020   -4.5470 H   0  0  0  0  0  0  0  0  0  0  0  0
   16.5910   -1.2130   -5.0400 H   0  0  0  0  0  0  0  0  0  0  0  0
   15.8450   -2.8700   -3.3770 H   0  0  0  0  0  0  0  0  0  0  0  0
   15.3550   -4.1660    0.4050 H   0  0  0  0  0  0  0  0  0  0  0  0
   14.4410   -5.7300   -1.2540 H   0  0  0  0  0  0  0  0  0  0  0  0
   14.4000   -4.4720   -2.5790 H   0  0  0  0  0  0  0  0  0  0  0  0
   16.9530   -4.0800   -2.2780 H   0  0  0  0  0  0  0  0  0  0  0  0
   16.9800   -5.3380   -0.9640 H   0  0  0  0  0  0  0  0  0  0  0  0
   16.2720   -2.1830    1.0740 H   0  0  0  0  0  0  0  0  0  0  0  0
   13.5210   -2.0270    3.4580 H   0  0  0  0  0  0  0  0  0  0  0  0
   10.9560   -2.1600    0.5120 H   0  0  0  0  0  0  0  0  0  0  0  0
   11.6720   -3.6090    1.3910 H   0  0  0  0  0  0  0  0  0  0  0  0
   11.5990   -1.9820    2.2130 H   0  0  0  0  0  0  0  0  0  0  0  0
   15.2880    0.2920   -0.5010 H   0  0  0  0  0  0  0  0  0  0  0  0
   16.1540    2.1980   -0.0830 H   0  0  0  0  0  0  0  0  0  0  0  0
   15.2400   -2.2210    3.2740 H   0  0  0  0  0  0  0  0  0  0  0  0
  1  2  1  0  0  0  0
  1 25  1  0  0  0  0
  1 26  1  0  0  0  0
  1 27  1  0  0  0  0
  2  3  2  0  0  0  0
  2 24  1  0  0  0  0
  3  4  1  0  0  0  0
  3 28  1  0  0  0  0
  4  5  2  0  0  0  0
  5  6  1  0  0  0  0
  5 29  1  0  0  0  0
  6  7  1  0  0  0  0
  6 24  2  0  0  0  0
  7  8  2  0  0  0  0
  7 23  1  0  0  0  0
  8  9  1  0  0  0  0
  8 30  1  0  0  0  0
  9 10  2  0  0  0  0
  9 31  1  0  0  0  0
 10 11  1  0  0  0  0
 10 32  1  0  0  0  0
 11 23  2  0  0  0  0
 12 11  1  6  0  0  0
 12 13  1  0  0  0  0
 12 16  1  0  0  0  0
 12 21  1  0  0  0  0
 13 14  1  0  0  0  0
 13 15  1  0  0  0  0
 13 33  1  0  0  0  0
 14 15  1  0  0  0  0
 14 34  1  0  0  0  0
 14 35  1  0  0  0  0
 15 36  1  0  0  0  0
 15 37  1  0  0  0  0
 16 17  2  0  0  0  0
 16 38  1  0  0  0  0
 17 18  1  0  0  0  0
 17 19  1  0  0  0  0
 18 39  1  0  0  0  0
 18 45  1  0  0  0  0
 19 20  1  0  0  0  0
 19 21  1  0  0  0  0
 20 40  1  0  0  0  0
 20 41  1  0  0  0  0
 20 42  1  0  0  0  0
 21 22  2  0  0  0  0
 23 43  1  0  0  0  0
 24 44  1  0  0  0  0
M  CHG  1  16   1
M  END
$$$$
