p38a_2k
 OpenBabel02232411163D
Structure written by MMmdl.
 43 46  0  0  0  0  0  0  0  0999 V2000
   38.2890   36.5660   17.1290 C   0  0  0  0  0  0  0  0  0  0  0  0
   34.4520   35.0260   21.1040 C   0  0  0  0  0  0  0  0  0  0  0  0
   37.4930   36.0970   18.1710 C   0  0  0  0  0  0  0  0  0  0  0  0
   33.8510   38.9990   23.7940 C   0  0  0  0  0  0  0  0  0  0  0  0
   34.6070   37.9030   21.3700 C   0  0  0  0  0  0  0  0  0  0  0  0
   35.0460   37.2760   20.1510 C   0  0  0  0  0  0  0  0  0  0  0  0
   37.6550   36.7440   15.8920 C   0  0  0  0  0  0  0  0  0  0  0  0
   36.3060   36.4560   15.6680 C   0  0  0  0  0  0  0  0  0  0  0  0
   35.5320   35.9710   16.7270 C   0  0  0  0  0  0  0  0  0  0  0  0
   34.1250   37.0970   22.4410 C   0  0  0  0  0  0  0  0  0  0  0  0
   34.6400   39.3050   21.6000 C   0  0  0  0  0  0  0  0  0  0  0  0
   34.9940   35.9270   20.0500 C   0  0  0  0  0  0  0  0  0  0  0  0
   36.1320   35.7820   17.9750 C   0  0  0  0  0  0  0  0  0  0  0  0
   33.6600   35.1560   23.0940 H   0  0  0  0  0  0  0  0  0  0  0  0
   38.0110   35.9430   19.3820 F   0  0  0  0  0  0  0  0  0  0  0  0
   35.4020   35.1340   18.9790 O   0  0  0  0  0  0  0  0  0  0  0  0
   34.2870   39.8640   22.7680 N   0  0  0  0  0  0  0  0  0  0  0  0
   34.3420   33.8220   21.0430 O   0  0  0  0  0  0  0  0  0  0  0  0
   34.0330   35.7060   22.2940 N   0  0  0  0  0  0  0  0  0  0  0  0
   33.7440   37.6240   23.6460 N   0  0  0  0  0  0  0  0  0  0  0  0
   33.4900   39.5550   24.9940 N   0  0  0  0  0  0  0  0  0  0  0  0
   39.3430   36.8190   17.2790 H   0  0  0  0  0  0  0  0  0  0  0  0
   35.4190   37.9170   19.3500 H   0  0  0  0  0  0  0  0  0  0  0  0
   35.8460   36.6180   14.6910 H   0  0  0  0  0  0  0  0  0  0  0  0
   34.4690   35.7580   16.5730 H   0  0  0  0  0  0  0  0  0  0  0  0
   34.9660   39.9840   20.7950 H   0  0  0  0  0  0  0  0  0  0  0  0
   33.6070   40.5740   25.1490 H   0  0  0  0  0  0  0  0  0  0  0  0
   38.3650   37.2520   14.8880 F   0  0  0  0  0  0  0  0  0  0  0  0
   33.0760   40.4090   28.0920 C   0  0  0  0  0  0  0  0  0  0  0  0
   32.2070   39.6060   27.1160 C   0  0  0  0  0  0  0  0  0  0  0  0
   33.0190   38.7200   26.1490 C   0  0  0  0  0  0  0  0  0  0  0  0
   34.1890   38.0170   26.8670 C   0  0  0  0  0  0  0  0  0  0  0  0
   34.9680   38.9630   27.7810 C   0  0  0  0  0  0  0  0  0  0  0  0
   34.0830   39.5990   28.7340 O   0  0  0  0  0  0  0  0  0  0  0  0
   32.4750   40.7730   28.9560 H   0  0  0  0  0  0  0  0  0  0  0  0
   33.5830   41.2510   27.5700 H   0  0  0  0  0  0  0  0  0  0  0  0
   31.5770   40.3190   26.5280 H   0  0  0  0  0  0  0  0  0  0  0  0
   31.5210   38.9350   27.6910 H   0  0  0  0  0  0  0  0  0  0  0  0
   32.3280   37.9290   25.7320 H   0  0  0  0  0  0  0  0  0  0  0  0
   33.7570   37.1780   27.4710 H   0  0  0  0  0  0  0  0  0  0  0  0
   34.8870   37.5630   26.1200 H   0  0  0  0  0  0  0  0  0  0  0  0
   35.6670   38.4060   28.4460 H   0  0  0  0  0  0  0  0  0  0  0  0
   35.4940   39.7500   27.1940 H   0  0  0  0  0  0  0  0  0  0  0  0
  1  3  2  0  0  0  0
  1  7  1  0  0  0  0
  1 22  1  0  0  0  0
  2 12  1  0  0  0  0
  2 18  2  0  0  0  0
  2 19  1  0  0  0  0
  3 13  1  0  0  0  0
  3 15  1  0  0  0  0
  4 17  2  0  0  0  0
  4 20  1  0  0  0  0
  4 21  1  0  0  0  0
  5  6  1  0  0  0  0
  5 10  1  0  0  0  0
  5 11  2  0  0  0  0
  6 12  2  0  0  0  0
  6 23  1  0  0  0  0
  7  8  2  0  0  0  0
  7 28  1  0  0  0  0
  8  9  1  0  0  0  0
  8 24  1  0  0  0  0
  9 13  2  0  0  0  0
  9 25  1  0  0  0  0
 10 19  1  0  0  0  0
 10 20  2  0  0  0  0
 11 17  1  0  0  0  0
 11 26  1  0  0  0  0
 12 16  1  0  0  0  0
 13 16  1  0  0  0  0
 14 19  1  0  0  0  0
 21 27  1  0  0  0  0
 21 31  1  0  0  0  0
 29 30  1  0  0  0  0
 29 34  1  0  0  0  0
 29 35  1  0  0  0  0
 29 36  1  0  0  0  0
 30 31  1  0  0  0  0
 30 37  1  0  0  0  0
 30 38  1  0  0  0  0
 31 32  1  0  0  0  0
 31 39  1  0  0  0  0
 32 33  1  0  0  0  0
 32 40  1  0  0  0  0
 32 41  1  0  0  0  0
 33 34  1  0  0  0  0
 33 42  1  0  0  0  0
 33 43  1  0  0  0  0
M  END
$$$$
