18634-1
 OpenBabel02232411163D
Structure written by MMmdl.
 46 47  0  0  0  0  0  0  0  0999 V2000
   23.8460   12.6560   30.3440 C   0  0  0  0  0  0  0  0  0  0  0  0
   23.4050   11.2090   30.4670 C   0  0  0  0  0  0  0  0  0  0  0  0
   22.1520   11.3060   31.2580 O   0  0  0  0  0  0  0  0  0  0  0  0
   21.5140   10.1650   31.5940 C   0  0  0  0  0  0  0  0  0  0  0  0
   21.9900    8.9790   31.1500 N   0  0  0  0  0  0  0  0  0  0  0  0
   21.2520    7.8410   31.4510 C   0  0  0  0  0  0  0  0  0  0  0  0
   20.0970    7.8800   32.2260 C   0  0  0  0  0  0  0  0  0  0  0  0
   19.6180    9.1270   32.7060 C   0  0  0  0  0  0  0  0  0  0  0  0
   18.4790    9.1680   33.4690 N   0  0  0  0  0  0  0  0  0  0  0  0
   20.3270   10.3250   32.3700 C   0  0  0  0  0  0  0  0  0  0  0  0
   19.9020   11.6250   32.7170 C   0  0  0  0  0  0  0  0  0  0  0  0
   19.5970   12.7180   32.9570 N   0  0  0  0  0  0  0  0  0  0  0  0
   21.8070    6.6830   30.8650 N   0  0  0  0  0  0  0  0  0  0  0  0
   21.1980    5.4080   30.7780 C   0  0  0  0  0  0  0  0  0  0  0  0
   20.1270    5.1580   31.2890 O   0  0  0  0  0  0  0  0  0  0  0  0
   21.9840    4.4210   29.9260 C   0  0  0  0  0  0  0  0  0  0  0  0
   23.2990    4.0430   30.5410 C   0  0  0  0  0  0  0  0  0  0  0  0
   24.4460    4.8480   30.3340 C   0  0  0  0  0  0  0  0  0  0  0  0
   24.2050    5.9370   29.5030 O   0  0  0  0  0  0  0  0  0  0  0  0
   25.2530    6.9330   29.3750 C   0  0  0  0  0  0  0  0  0  0  0  0
   25.6820    4.5310   30.9090 C   0  0  0  0  0  0  0  0  0  0  0  0
   25.7960    3.3920   31.7010 C   0  0  0  0  0  0  0  0  0  0  0  0
   24.6650    2.5760   31.8950 C   0  0  0  0  0  0  0  0  0  0  0  0
   23.4250    2.8880   31.3170 C   0  0  0  0  0  0  0  0  0  0  0  0
   24.9190    1.4930   32.7120 O   0  0  0  0  0  0  0  0  0  0  0  0
   23.9100    0.4530   32.7890 C   0  0  0  0  0  0  0  0  0  0  0  0
   24.0510   13.1050   31.3420 H   0  0  0  0  0  0  0  0  0  0  0  0
   23.0710   13.2680   29.8260 H   0  0  0  0  0  0  0  0  0  0  0  0
   24.7840   12.6930   29.7340 H   0  0  0  0  0  0  0  0  0  0  0  0
   23.1510   10.7580   29.4820 H   0  0  0  0  0  0  0  0  0  0  0  0
   24.1300   10.5880   31.0390 H   0  0  0  0  0  0  0  0  0  0  0  0
   19.5390    6.9690   32.4550 H   0  0  0  0  0  0  0  0  0  0  0  0
   18.0770   10.0540   33.7780 H   0  0  0  0  0  0  0  0  0  0  0  0
   17.9690    8.2980   33.7170 H   0  0  0  0  0  0  0  0  0  0  0  0
   22.7330    6.8200   30.3860 H   0  0  0  0  0  0  0  0  0  0  0  0
   21.3590    3.5040   29.7730 H   0  0  0  0  0  0  0  0  0  0  0  0
   22.1700    4.8940   28.9220 H   0  0  0  0  0  0  0  0  0  0  0  0
   26.1230    6.4930   28.8430 H   0  0  0  0  0  0  0  0  0  0  0  0
   25.5310    7.3340   30.3730 H   0  0  0  0  0  0  0  0  0  0  0  0
   24.7480    7.7090   28.7560 H   0  0  0  0  0  0  0  0  0  0  0  0
   26.5650    5.1540   30.7420 H   0  0  0  0  0  0  0  0  0  0  0  0
   26.7560    3.1330   32.1580 H   0  0  0  0  0  0  0  0  0  0  0  0
   22.5620    2.2390   31.4710 H   0  0  0  0  0  0  0  0  0  0  0  0
   23.7160    0.0390   31.7760 H   0  0  0  0  0  0  0  0  0  0  0  0
   22.9880    0.8430   33.2690 H   0  0  0  0  0  0  0  0  0  0  0  0
   24.4140   -0.3010   33.4400 H   0  0  0  0  0  0  0  0  0  0  0  0
  1  2  1  0  0  0  0
  1 27  1  0  0  0  0
  1 28  1  0  0  0  0
  1 29  1  0  0  0  0
  2  3  1  0  0  0  0
  2 30  1  0  0  0  0
  2 31  1  0  0  0  0
  3  4  1  0  0  0  0
  4 10  2  0  0  0  0
  4  5  1  0  0  0  0
  5  6  2  0  0  0  0
  6  7  1  0  0  0  0
  6 13  1  0  0  0  0
  7  8  2  0  0  0  0
  7 32  1  0  0  0  0
  8  9  1  0  0  0  0
  8 10  1  0  0  0  0
  9 33  1  0  0  0  0
  9 34  1  0  0  0  0
 10 11  1  0  0  0  0
 11 12  3  0  0  0  0
 13 14  1  0  0  0  0
 13 35  1  0  0  0  0
 14 15  2  0  0  0  0
 14 16  1  0  0  0  0
 16 17  1  0  0  0  0
 16 36  1  0  0  0  0
 16 37  1  0  0  0  0
 17 24  2  0  0  0  0
 17 18  1  0  0  0  0
 18 19  1  0  0  0  0
 18 21  2  0  0  0  0
 19 20  1  0  0  0  0
 20 38  1  0  0  0  0
 20 39  1  0  0  0  0
 20 40  1  0  0  0  0
 21 22  1  0  0  0  0
 21 41  1  0  0  0  0
 22 23  2  0  0  0  0
 22 42  1  0  0  0  0
 23 24  1  0  0  0  0
 23 25  1  0  0  0  0
 24 43  1  0  0  0  0
 25 26  1  0  0  0  0
 26 44  1  0  0  0  0
 26 45  1  0  0  0  0
 26 46  1  0  0  0  0
M  END
$$$$
