p38a_3flw
 OpenBabel02232411163D
Structure written by MMmdl.
 49 51  0  0  0  0  0  0  0  0999 V2000
   38.2490   36.5220   17.2020 C   0  0  0  0  0  0  0  0  0  0  0  0
   37.5960   36.6740   15.9700 C   0  0  0  0  0  0  0  0  0  0  0  0
   33.6390   39.6340   27.6160 C   0  0  0  0  0  0  0  0  0  0  0  0
   34.9150   38.9150   28.0720 C   0  0  0  0  0  0  0  0  0  0  0  0
   31.6400   39.5410   26.0750 C   0  0  0  0  0  0  0  0  0  0  0  0
   34.3550   35.0470   23.8840 C   0  0  0  0  0  0  0  0  0  0  0  0
   38.0070   35.9580   19.4730 F   0  0  0  0  0  0  0  0  0  0  0  0
   37.4640   36.0970   18.2700 C   0  0  0  0  0  0  0  0  0  0  0  0
   38.2980   37.1440   14.9410 F   0  0  0  0  0  0  0  0  0  0  0  0
   36.2410   36.3960   15.7780 C   0  0  0  0  0  0  0  0  0  0  0  0
   35.4760   35.9620   16.8660 C   0  0  0  0  0  0  0  0  0  0  0  0
   36.0920   35.8050   18.1110 C   0  0  0  0  0  0  0  0  0  0  0  0
   35.3600   35.2090   19.1460 O   0  0  0  0  0  0  0  0  0  0  0  0
   35.0700   36.0230   20.2390 C   0  0  0  0  0  0  0  0  0  0  0  0
   35.0710   37.3740   20.2840 C   0  0  0  0  0  0  0  0  0  0  0  0
   34.7700   38.0220   21.5330 C   0  0  0  0  0  0  0  0  0  0  0  0
   34.6710   39.4300   21.6680 C   0  0  0  0  0  0  0  0  0  0  0  0
   34.3860   40.0290   22.8380 N   0  0  0  0  0  0  0  0  0  0  0  0
   34.6910   35.1510   21.3860 C   0  0  0  0  0  0  0  0  0  0  0  0
   34.4970   33.9570   21.3270 O   0  0  0  0  0  0  0  0  0  0  0  0
   34.5620   35.8420   22.6400 N   0  0  0  0  0  0  0  0  0  0  0  0
   34.5550   37.2430   22.7120 C   0  0  0  0  0  0  0  0  0  0  0  0
   34.3210   37.8340   23.9300 N   0  0  0  0  0  0  0  0  0  0  0  0
   34.2010   39.2020   23.9560 C   0  0  0  0  0  0  0  0  0  0  0  0
   33.9710   39.8320   25.1830 N   0  0  0  0  0  0  0  0  0  0  0  0
   33.1320   39.1640   26.2320 C   0  0  0  0  0  0  0  0  0  0  0  0
   30.9940   39.1190   24.7520 C   0  0  0  0  0  0  0  0  0  0  0  0
   31.1230   37.7190   24.4700 O   0  0  0  0  0  0  0  0  0  0  0  0
   36.0710   39.3040   27.3140 O   0  0  0  0  0  0  0  0  0  0  0  0
   39.3090   36.7610   17.3230 H   0  0  0  0  0  0  0  0  0  0  0  0
   32.8420   39.4310   28.3770 H   0  0  0  0  0  0  0  0  0  0  0  0
   33.8050   40.7400   27.6010 H   0  0  0  0  0  0  0  0  0  0  0  0
   35.1700   39.2060   29.1180 H   0  0  0  0  0  0  0  0  0  0  0  0
   34.7990   37.8100   27.9760 H   0  0  0  0  0  0  0  0  0  0  0  0
   31.0790   39.0760   26.9240 H   0  0  0  0  0  0  0  0  0  0  0  0
   31.5420   40.6520   26.1670 H   0  0  0  0  0  0  0  0  0  0  0  0
   33.3580   35.2920   24.3420 H   0  0  0  0  0  0  0  0  0  0  0  0
   34.3900   33.9500   23.6540 H   0  0  0  0  0  0  0  0  0  0  0  0
   35.1580   35.2930   24.6300 H   0  0  0  0  0  0  0  0  0  0  0  0
   35.7680   36.5270   14.8020 H   0  0  0  0  0  0  0  0  0  0  0  0
   34.4070   35.7620   16.7350 H   0  0  0  0  0  0  0  0  0  0  0  0
   35.2990   38.0000   19.4170 H   0  0  0  0  0  0  0  0  0  0  0  0
   34.8040   40.0820   20.7890 H   0  0  0  0  0  0  0  0  0  0  0  0
   33.8190   40.8670   25.1640 H   0  0  0  0  0  0  0  0  0  0  0  0
   33.2390   38.0500   26.1510 H   0  0  0  0  0  0  0  0  0  0  0  0
   29.9060   39.3670   24.7760 H   0  0  0  0  0  0  0  0  0  0  0  0
   31.5010   39.5910   23.8810 H   0  0  0  0  0  0  0  0  0  0  0  0
   30.8310   37.2000   25.2570 H   0  0  0  0  0  0  0  0  0  0  0  0
   35.7890   39.4240   26.3790 H   0  0  0  0  0  0  0  0  0  0  0  0
  1  2  2  0  0  0  0
  1  8  1  0  0  0  0
  1 30  1  0  0  0  0
  2  9  1  0  0  0  0
  2 10  1  0  0  0  0
  3  4  1  0  0  0  0
  3 26  1  0  0  0  0
  3 31  1  0  0  0  0
  3 32  1  0  0  0  0
  4 29  1  0  0  0  0
  4 33  1  0  0  0  0
  4 34  1  0  0  0  0
  5 26  1  0  0  0  0
  5 27  1  0  0  0  0
  5 35  1  0  0  0  0
  5 36  1  0  0  0  0
  6 21  1  0  0  0  0
  6 37  1  0  0  0  0
  6 38  1  0  0  0  0
  6 39  1  0  0  0  0
  7  8  1  0  0  0  0
  8 12  2  0  0  0  0
 10 11  2  0  0  0  0
 10 40  1  0  0  0  0
 11 12  1  0  0  0  0
 11 41  1  0  0  0  0
 12 13  1  0  0  0  0
 13 14  1  0  0  0  0
 14 15  2  0  0  0  0
 14 19  1  0  0  0  0
 15 16  1  0  0  0  0
 15 42  1  0  0  0  0
 16 17  2  0  0  0  0
 16 22  1  0  0  0  0
 17 18  1  0  0  0  0
 17 43  1  0  0  0  0
 18 24  2  0  0  0  0
 19 20  2  0  0  0  0
 19 21  1  0  0  0  0
 21 22  1  0  0  0  0
 22 23  2  0  0  0  0
 23 24  1  0  0  0  0
 24 25  1  0  0  0  0
 25 26  1  0  0  0  0
 25 44  1  0  0  0  0
 26 45  1  0  0  0  0
 27 28  1  0  0  0  0
 27 46  1  0  0  0  0
 27 47  1  0  0  0  0
 28 48  1  0  0  0  0
 29 49  1  0  0  0  0
M  END
$$$$
