CAT-17c
 OpenBabel02232411143D
Structure written by MMmdl.
 44 47  0  0  1  0  0  0  0  0999 V2000
   11.6230   -2.3640    1.2600 C   0  0  0  0  0  0  0  0  0  0  0  0
   12.9720   -2.3410    0.6560 N   0  0  0  0  0  0  0  0  0  0  0  0
   14.1580   -2.3420    1.3830 C   0  0  0  0  0  0  0  0  0  0  0  0
   14.3010   -2.4450    2.7340 N   0  0  0  0  0  0  0  0  0  0  0  0
   15.2520   -2.2780    0.5090 N   0  3  0  0  0  0  0  0  0  0  0  0
   14.8080   -2.6150   -0.8950 C   0  0  1  0  0  0  0  0  0  0  0  0
   15.4080   -1.6100   -1.8540 C   0  0  0  0  0  0  0  0  0  0  0  0
   16.3010   -2.0140   -2.8540 C   0  0  0  0  0  0  0  0  0  0  0  0
   16.7800   -1.0720   -3.7710 C   0  0  0  0  0  0  0  0  0  0  0  0
   16.3920    0.2660   -3.6840 C   0  0  0  0  0  0  0  0  0  0  0  0
   15.5460    0.6870   -2.6430 C   0  0  0  0  0  0  0  0  0  0  0  0
   15.1800    2.1130   -2.4900 C   0  0  0  0  0  0  0  0  0  0  0  0
   15.3820    2.7490   -1.2540 C   0  0  0  0  0  0  0  0  0  0  0  0
   14.9770    4.0730   -1.0670 C   0  0  0  0  0  0  0  0  0  0  0  0
   14.3780    4.7790   -2.1120 C   0  0  0  0  0  0  0  0  0  0  0  0
   14.2180    4.1590   -3.3630 C   0  0  0  0  0  0  0  0  0  0  0  0
   13.6240    4.8880   -4.4470 C   0  0  0  0  0  0  0  0  0  0  0  0
   13.1420    5.4770   -5.3170 N   0  0  0  0  0  0  0  0  0  0  0  0
   14.6160    2.8260   -3.5570 C   0  0  0  0  0  0  0  0  0  0  0  0
   15.0510   -0.2580   -1.7340 C   0  0  0  0  0  0  0  0  0  0  0  0
   15.0200   -4.0790   -1.2510 C   0  0  0  0  0  0  0  0  0  0  0  0
   16.2240   -4.8450   -0.7300 C   0  0  0  0  0  0  0  0  0  0  0  0
   14.8460   -5.1740   -0.2040 C   0  0  0  0  0  0  0  0  0  0  0  0
   13.2550   -2.4360   -0.7940 C   0  0  0  0  0  0  0  0  0  0  0  0
   12.3930   -2.3880   -1.6100 O   0  0  0  0  0  0  0  0  0  0  0  0
   11.6750   -2.6370    2.3470 H   0  0  0  0  0  0  0  0  0  0  0  0
   11.1510   -1.3510    1.1520 H   0  0  0  0  0  0  0  0  0  0  0  0
   10.9970   -3.1350    0.7340 H   0  0  0  0  0  0  0  0  0  0  0  0
   13.5800   -2.0650    3.3970 H   0  0  0  0  0  0  0  0  0  0  0  0
   16.1840   -2.6220    0.8720 H   0  0  0  0  0  0  0  0  0  0  0  0
   16.6270   -3.0540   -2.9170 H   0  0  0  0  0  0  0  0  0  0  0  0
   17.4710   -1.3870   -4.5590 H   0  0  0  0  0  0  0  0  0  0  0  0
   16.7550    0.9850   -4.4230 H   0  0  0  0  0  0  0  0  0  0  0  0
   15.8480    2.2010   -0.4320 H   0  0  0  0  0  0  0  0  0  0  0  0
   15.1190    4.5420   -0.0880 H   0  0  0  0  0  0  0  0  0  0  0  0
   14.0200    5.7980   -1.9490 H   0  0  0  0  0  0  0  0  0  0  0  0
   14.4770    2.3400   -4.5270 H   0  0  0  0  0  0  0  0  0  0  0  0
   14.3950    0.0590   -0.9220 H   0  0  0  0  0  0  0  0  0  0  0  0
   14.6780   -4.3030   -2.2780 H   0  0  0  0  0  0  0  0  0  0  0  0
   16.7420   -5.5290   -1.4000 H   0  0  0  0  0  0  0  0  0  0  0  0
   16.9400   -4.3370   -0.0820 H   0  0  0  0  0  0  0  0  0  0  0  0
   14.5990   -4.9030    0.8300 H   0  0  0  0  0  0  0  0  0  0  0  0
   14.3540   -6.1080   -0.5090 H   0  0  0  0  0  0  0  0  0  0  0  0
   15.2790   -2.3790    3.1380 H   0  0  0  0  0  0  0  0  0  0  0  0
  1  2  1  0  0  0  0
  1 26  1  0  0  0  0
  1 27  1  0  0  0  0
  1 28  1  0  0  0  0
  2  3  1  0  0  0  0
  2 24  1  0  0  0  0
  3  4  1  0  0  0  0
  3  5  2  0  0  0  0
  4 29  1  0  0  0  0
  4 44  1  0  0  0  0
  5  6  1  0  0  0  0
  5 30  1  0  0  0  0
  6  7  1  6  0  0  0
  6 21  1  0  0  0  0
  6 24  1  0  0  0  0
  7  8  2  0  0  0  0
  7 20  1  0  0  0  0
  8  9  1  0  0  0  0
  8 31  1  0  0  0  0
  9 10  2  0  0  0  0
  9 32  1  0  0  0  0
 10 11  1  0  0  0  0
 10 33  1  0  0  0  0
 11 12  1  0  0  0  0
 11 20  2  0  0  0  0
 12 13  2  0  0  0  0
 12 19  1  0  0  0  0
 13 14  1  0  0  0  0
 13 34  1  0  0  0  0
 14 15  2  0  0  0  0
 14 35  1  0  0  0  0
 15 16  1  0  0  0  0
 15 36  1  0  0  0  0
 16 17  1  0  0  0  0
 16 19  2  0  0  0  0
 17 18  3  0  0  0  0
 19 37  1  0  0  0  0
 20 38  1  0  0  0  0
 21 22  1  0  0  0  0
 21 23  1  0  0  0  0
 21 39  1  0  0  0  0
 22 23  1  0  0  0  0
 22 40  1  0  0  0  0
 22 41  1  0  0  0  0
 23 42  1  0  0  0  0
 23 43  1  0  0  0  0
 24 25  2  0  0  0  0
M  CHG  1   5   1
M  END
$$$$
