p38a_2u
 OpenBabel02232411163D
Structure written by MMmdl.
 64 68  0  0  0  0  0  0  0  0999 V2000
   38.2760   36.5380   17.1720 C   0  0  0  0  0  0  0  0  0  0  0  0
   34.5320   35.1240   21.2500 C   0  0  0  0  0  0  0  0  0  0  0  0
   37.4890   36.0900   18.2290 C   0  0  0  0  0  0  0  0  0  0  0  0
   33.9980   39.2310   23.7530 C   0  0  0  0  0  0  0  0  0  0  0  0
   34.6180   38.0030   21.3630 C   0  0  0  0  0  0  0  0  0  0  0  0
   35.0200   37.3360   20.1560 C   0  0  0  0  0  0  0  0  0  0  0  0
   37.6320   36.6920   15.9370 C   0  0  0  0  0  0  0  0  0  0  0  0
   36.2830   36.3950   15.7280 C   0  0  0  0  0  0  0  0  0  0  0  0
   35.5170   35.9330   16.8040 C   0  0  0  0  0  0  0  0  0  0  0  0
   34.2440   37.2400   22.5080 C   0  0  0  0  0  0  0  0  0  0  0  0
   34.6030   39.4180   21.4960 C   0  0  0  0  0  0  0  0  0  0  0  0
   35.0100   35.9850   20.1310 C   0  0  0  0  0  0  0  0  0  0  0  0
   36.1250   35.7740   18.0520 C   0  0  0  0  0  0  0  0  0  0  0  0
   38.0190   35.9590   19.4380 F   0  0  0  0  0  0  0  0  0  0  0  0
   35.3980   35.1560   19.0780 O   0  0  0  0  0  0  0  0  0  0  0  0
   34.3090   40.0460   22.6450 N   0  0  0  0  0  0  0  0  0  0  0  0
   34.4340   33.9180   21.1820 O   0  0  0  0  0  0  0  0  0  0  0  0
   34.1630   35.8310   22.4470 N   0  0  0  0  0  0  0  0  0  0  0  0
   33.9510   37.8510   23.6990 N   0  0  0  0  0  0  0  0  0  0  0  0
   33.6630   39.8490   24.9350 N   0  0  0  0  0  0  0  0  0  0  0  0
   39.3310   36.7930   17.3080 H   0  0  0  0  0  0  0  0  0  0  0  0
   35.3350   37.9460   19.3060 H   0  0  0  0  0  0  0  0  0  0  0  0
   35.8160   36.5320   14.7510 H   0  0  0  0  0  0  0  0  0  0  0  0
   34.4530   35.7150   16.6630 H   0  0  0  0  0  0  0  0  0  0  0  0
   34.8390   40.0500   20.6240 H   0  0  0  0  0  0  0  0  0  0  0  0
   33.8000   40.8720   25.0380 H   0  0  0  0  0  0  0  0  0  0  0  0
   38.3340   37.1860   14.9200 F   0  0  0  0  0  0  0  0  0  0  0  0
   32.3860   39.1350   28.4640 C   0  0  0  0  0  0  0  0  0  0  0  0
   32.4940   39.8370   27.1050 C   0  0  0  0  0  0  0  0  0  0  0  0
   33.5020   39.0850   26.2110 C   0  0  0  0  0  0  0  0  0  0  0  0
   34.8580   38.9390   26.9350 C   0  0  0  0  0  0  0  0  0  0  0  0
   34.6450   38.2850   28.3060 C   0  0  0  0  0  0  0  0  0  0  0  0
   33.6770   39.0060   29.1030 O   0  0  0  0  0  0  0  0  0  0  0  0
   31.9330   38.1230   28.3540 H   0  0  0  0  0  0  0  0  0  0  0  0
   31.8250   39.7620   29.1960 H   0  0  0  0  0  0  0  0  0  0  0  0
   32.8320   40.8900   27.2550 H   0  0  0  0  0  0  0  0  0  0  0  0
   31.4960   39.8580   26.6080 H   0  0  0  0  0  0  0  0  0  0  0  0
   33.0940   38.0620   25.9720 H   0  0  0  0  0  0  0  0  0  0  0  0
   35.5420   38.2950   26.3300 H   0  0  0  0  0  0  0  0  0  0  0  0
   35.3340   39.9400   27.0580 H   0  0  0  0  0  0  0  0  0  0  0  0
   34.3100   37.2280   28.1900 H   0  0  0  0  0  0  0  0  0  0  0  0
   35.5640   38.3540   28.9320 H   0  0  0  0  0  0  0  0  0  0  0  0
   34.5400   33.7120   25.6500 C   0  0  0  0  0  0  0  0  0  0  0  0
   34.9360   34.2870   24.2700 C   0  0  0  0  0  0  0  0  0  0  0  0
   33.7450   35.0710   23.6910 C   0  0  0  0  0  0  0  0  0  0  0  0
   32.5350   34.1540   23.4190 C   0  0  0  0  0  0  0  0  0  0  0  0
   32.5200   32.9500   24.3890 C   0  0  0  0  0  0  0  0  0  0  0  0
   34.7110   34.4980   26.4360 H   0  0  0  0  0  0  0  0  0  0  0  0
   35.2090   32.8330   25.8530 H   0  0  0  0  0  0  0  0  0  0  0  0
   35.2280   33.4510   23.5930 H   0  0  0  0  0  0  0  0  0  0  0  0
   35.8140   34.9580   24.4140 H   0  0  0  0  0  0  0  0  0  0  0  0
   33.4310   35.8290   24.4720 H   0  0  0  0  0  0  0  0  0  0  0  0
   31.6020   34.7540   23.5510 H   0  0  0  0  0  0  0  0  0  0  0  0
   32.5460   33.7480   22.3800 H   0  0  0  0  0  0  0  0  0  0  0  0
   31.4590   32.6140   24.5270 H   0  0  0  0  0  0  0  0  0  0  0  0
   33.1210   32.1070   23.9520 H   0  0  0  0  0  0  0  0  0  0  0  0
   33.0960   33.3300   25.7110 N   0  0  0  0  0  0  0  0  0  0  0  0
   32.4930   32.6180   27.1480 S   0  0  0  0  0  0  0  0  0  0  0  0
   31.2930   31.8330   26.7860 O   0  0  0  0  0  0  0  0  0  0  0  0
   32.1790   33.6770   28.1190 O   0  0  0  0  0  0  0  0  0  0  0  0
   33.7430   31.5930   27.7830 C   0  0  0  0  0  0  0  0  0  0  0  0
   34.1200   30.8560   27.0290 H   0  0  0  0  0  0  0  0  0  0  0  0
   34.6240   32.1760   28.1620 H   0  0  0  0  0  0  0  0  0  0  0  0
   33.3760   30.9880   28.6560 H   0  0  0  0  0  0  0  0  0  0  0  0
  1  3  2  0  0  0  0
  1  7  1  0  0  0  0
  1 21  1  0  0  0  0
  2 12  1  0  0  0  0
  2 17  2  0  0  0  0
  2 18  1  0  0  0  0
  3 13  1  0  0  0  0
  3 14  1  0  0  0  0
  4 16  2  0  0  0  0
  4 19  1  0  0  0  0
  4 20  1  0  0  0  0
  5  6  1  0  0  0  0
  5 10  1  0  0  0  0
  5 11  2  0  0  0  0
  6 12  2  0  0  0  0
  6 22  1  0  0  0  0
  7  8  2  0  0  0  0
  7 27  1  0  0  0  0
  8  9  1  0  0  0  0
  8 23  1  0  0  0  0
  9 13  2  0  0  0  0
  9 24  1  0  0  0  0
 10 18  1  0  0  0  0
 10 19  2  0  0  0  0
 11 16  1  0  0  0  0
 11 25  1  0  0  0  0
 12 15  1  0  0  0  0
 13 15  1  0  0  0  0
 18 45  1  0  0  0  0
 20 26  1  0  0  0  0
 20 30  1  0  0  0  0
 28 29  1  0  0  0  0
 28 33  1  0  0  0  0
 28 34  1  0  0  0  0
 28 35  1  0  0  0  0
 29 30  1  0  0  0  0
 29 36  1  0  0  0  0
 29 37  1  0  0  0  0
 30 31  1  0  0  0  0
 30 38  1  0  0  0  0
 31 32  1  0  0  0  0
 31 39  1  0  0  0  0
 31 40  1  0  0  0  0
 32 33  1  0  0  0  0
 32 41  1  0  0  0  0
 32 42  1  0  0  0  0
 43 44  1  0  0  0  0
 43 48  1  0  0  0  0
 43 49  1  0  0  0  0
 43 57  1  0  0  0  0
 44 45  1  0  0  0  0
 44 50  1  0  0  0  0
 44 51  1  0  0  0  0
 45 46  1  0  0  0  0
 45 52  1  0  0  0  0
 46 47  1  0  0  0  0
 46 53  1  0  0  0  0
 46 54  1  0  0  0  0
 47 55  1  0  0  0  0
 47 56  1  0  0  0  0
 47 57  1  0  0  0  0
 57 58  1  0  0  0  0
 58 59  2  0  0  0  0
 58 60  2  0  0  0  0
 58 61  1  0  0  0  0
 61 62  1  0  0  0  0
 61 63  1  0  0  0  0
 61 64  1  0  0  0  0
M  END
$$$$
