18639-1
 OpenBabel02232411163D
Structure written by MMmdl.
 48 49  0  0  0  0  0  0  0  0999 V2000
   23.8120   12.6990   30.3320 C   0  0  0  0  0  0  0  0  0  0  0  0
   23.3680   11.2530   30.4380 C   0  0  0  0  0  0  0  0  0  0  0  0
   22.1240   11.3420   31.2450 O   0  0  0  0  0  0  0  0  0  0  0  0
   21.5020   10.1970   31.5950 C   0  0  0  0  0  0  0  0  0  0  0  0
   21.9960    9.0110   31.1660 N   0  0  0  0  0  0  0  0  0  0  0  0
   21.2740    7.8700   31.4830 C   0  0  0  0  0  0  0  0  0  0  0  0
   20.1140    7.9010   32.2500 C   0  0  0  0  0  0  0  0  0  0  0  0
   19.6150    9.1480   32.7130 C   0  0  0  0  0  0  0  0  0  0  0  0
   18.4710    9.1800   33.4680 N   0  0  0  0  0  0  0  0  0  0  0  0
   20.3120   10.3500   32.3690 C   0  0  0  0  0  0  0  0  0  0  0  0
   19.8770   11.6490   32.7070 C   0  0  0  0  0  0  0  0  0  0  0  0
   19.5660   12.7420   32.9410 N   0  0  0  0  0  0  0  0  0  0  0  0
   21.8530    6.7040   30.9280 N   0  0  0  0  0  0  0  0  0  0  0  0
   21.2550    5.4280   30.8520 C   0  0  0  0  0  0  0  0  0  0  0  0
   20.1660    5.1810   31.3260 O   0  0  0  0  0  0  0  0  0  0  0  0
   22.0680    4.4190   30.0490 C   0  0  0  0  0  0  0  0  0  0  0  0
   23.4280    4.1240   30.6100 C   0  0  0  0  0  0  0  0  0  0  0  0
   24.5390    4.9690   30.2940 C   0  0  0  0  0  0  0  0  0  0  0  0
   24.1960    6.0220   29.4560 O   0  0  0  0  0  0  0  0  0  0  0  0
   25.1730    7.0840   29.2740 C   0  0  0  0  0  0  0  0  0  0  0  0
   25.8140    4.7060   30.7670 C   0  0  0  0  0  0  0  0  0  0  0  0
   26.0280    3.5820   31.5930 C   0  0  0  0  0  0  0  0  0  0  0  0
   27.3780    3.3010   32.0900 N   0  3  0  0  0  0  0  0  0  0  0  0
   27.5040    2.4870   32.9920 O   0  5  0  0  0  0  0  0  0  0  0  0
   28.3240    3.8870   31.5770 O   0  0  0  0  0  0  0  0  0  0  0  0
   24.9430    2.7330   31.9120 C   0  0  0  0  0  0  0  0  0  0  0  0
   23.6510    3.0120   31.4050 C   0  0  0  0  0  0  0  0  0  0  0  0
   25.2740    1.6850   32.7160 O   0  0  0  0  0  0  0  0  0  0  0  0
   24.2630    0.6590   32.9460 C   0  0  0  0  0  0  0  0  0  0  0  0
   24.0330   13.1300   31.3340 H   0  0  0  0  0  0  0  0  0  0  0  0
   23.0320   13.3220   29.8360 H   0  0  0  0  0  0  0  0  0  0  0  0
   24.7400   12.7420   29.7080 H   0  0  0  0  0  0  0  0  0  0  0  0
   23.0950   10.8160   29.4500 H   0  0  0  0  0  0  0  0  0  0  0  0
   24.0970   10.6180   30.9890 H   0  0  0  0  0  0  0  0  0  0  0  0
   19.5690    6.9840   32.4850 H   0  0  0  0  0  0  0  0  0  0  0  0
   17.9650    8.3050   33.7080 H   0  0  0  0  0  0  0  0  0  0  0  0
   18.0540   10.0630   33.7640 H   0  0  0  0  0  0  0  0  0  0  0  0
   22.7740    6.8450   30.4430 H   0  0  0  0  0  0  0  0  0  0  0  0
   21.4790    3.4650   29.9860 H   0  0  0  0  0  0  0  0  0  0  0  0
   22.1890    4.8300   29.0070 H   0  0  0  0  0  0  0  0  0  0  0  0
   25.5100    7.4770   30.2570 H   0  0  0  0  0  0  0  0  0  0  0  0
   26.0140    6.7040   28.6560 H   0  0  0  0  0  0  0  0  0  0  0  0
   24.5690    7.8430   28.7240 H   0  0  0  0  0  0  0  0  0  0  0  0
   26.6650    5.3450   30.5010 H   0  0  0  0  0  0  0  0  0  0  0  0
   22.8230    2.3380   31.6400 H   0  0  0  0  0  0  0  0  0  0  0  0
   24.8370   -0.0850   33.5480 H   0  0  0  0  0  0  0  0  0  0  0  0
   23.4170    1.0800   33.5310 H   0  0  0  0  0  0  0  0  0  0  0  0
   23.9360    0.2220   31.9770 H   0  0  0  0  0  0  0  0  0  0  0  0
  1  2  1  0  0  0  0
  1 30  1  0  0  0  0
  1 31  1  0  0  0  0
  1 32  1  0  0  0  0
  2  3  1  0  0  0  0
  2 33  1  0  0  0  0
  2 34  1  0  0  0  0
  3  4  1  0  0  0  0
  4 10  2  0  0  0  0
  4  5  1  0  0  0  0
  5  6  2  0  0  0  0
  6  7  1  0  0  0  0
  6 13  1  0  0  0  0
  7  8  2  0  0  0  0
  7 35  1  0  0  0  0
  8  9  1  0  0  0  0
  8 10  1  0  0  0  0
  9 36  1  0  0  0  0
  9 37  1  0  0  0  0
 10 11  1  0  0  0  0
 11 12  3  0  0  0  0
 13 14  1  0  0  0  0
 13 38  1  0  0  0  0
 14 15  2  0  0  0  0
 14 16  1  0  0  0  0
 16 17  1  0  0  0  0
 16 39  1  0  0  0  0
 16 40  1  0  0  0  0
 17 27  2  0  0  0  0
 17 18  1  0  0  0  0
 18 19  1  0  0  0  0
 18 21  2  0  0  0  0
 19 20  1  0  0  0  0
 20 41  1  0  0  0  0
 20 42  1  0  0  0  0
 20 43  1  0  0  0  0
 21 22  1  0  0  0  0
 21 44  1  0  0  0  0
 22 23  1  0  0  0  0
 22 26  2  0  0  0  0
 23 24  1  0  0  0  0
 23 25  2  0  0  0  0
 26 27  1  0  0  0  0
 26 28  1  0  0  0  0
 27 45  1  0  0  0  0
 28 29  1  0  0  0  0
 29 46  1  0  0  0  0
 29 47  1  0  0  0  0
 29 48  1  0  0  0  0
M  CHG  2  23   1  24  -1
M  END
$$$$
