61
                    3D
 Schrodinger Suite 2022-3.
 43 45  0  0  1  0  0  0  0  0999 V2000
    3.7190  -48.5710    7.4610 O   0  0  0  0  0  0  0  0  0  0  0  0
    3.3470  -49.5730    6.8400 C   0  0  0  0  0  0  0  0  0  0  0  0
    4.0600  -50.4680    6.3510 O   0  5  0  0  0  0  0  0  0  0  0  0
    1.8400  -49.8070    6.6900 C   0  0  0  0  0  0  0  0  0  0  0  0
    1.2910  -51.3670    7.2630 S   0  0  0  0  0  0  0  0  0  0  0  0
   -0.3620  -51.0430    6.8300 C   0  0  0  0  0  0  0  0  0  0  0  0
   -1.4500  -51.8940    7.0150 C   0  0  0  0  0  0  0  0  0  0  0  0
   -2.6990  -51.4800    6.5570 C   0  0  0  0  0  0  0  0  0  0  0  0
   -2.8410  -50.2410    5.9090 C   0  0  0  0  0  0  0  0  0  0  0  0
   -1.7350  -49.4140    5.7360 C   0  0  0  0  0  0  0  0  0  0  0  0
   -0.4590  -49.7640    6.2130 C   0  0  0  0  0  0  0  0  0  0  0  0
    0.8250  -49.0510    6.1910 C   0  0  0  0  0  0  0  0  0  0  0  0
    1.0050  -47.6460    5.7030 C   0  0  0  0  0  0  0  0  0  0  0  0
    0.7740  -46.5890    6.7980 C   0  0  0  0  0  0  0  0  0  0  0  0
   -0.6020  -46.5750    7.4610 C   0  0  0  0  0  0  0  0  0  0  0  0
   -1.4550  -45.7870    6.5490 O   0  0  0  0  0  0  0  0  0  0  0  0
   -2.7470  -45.5610    6.9090 C   0  0  0  0  0  0  0  0  0  0  0  0
   -3.3350  -45.9640    8.1210 C   0  0  0  0  0  0  0  0  0  0  0  0
   -4.6680  -45.6220    8.3840 C   0  0  0  0  0  0  0  0  0  0  0  0
   -5.3180  -46.0260    9.6660 C   0  0  0  0  0  0  0  0  0  0  0  0
   -5.3860  -44.8990    7.4210 C   0  0  0  0  0  0  0  0  0  0  0  0
   -7.0440  -44.5180    7.7290 Cl  0  0  0  0  0  0  0  0  0  0  0  0
   -4.8180  -44.5090    6.1920 C   0  0  0  0  0  0  0  0  0  0  0  0
   -5.6410  -43.8220    5.1520 C   0  0  0  0  0  0  0  0  0  0  0  0
   -3.4880  -44.8400    5.9450 C   0  0  0  0  0  0  0  0  0  0  0  0
   -1.3460  -52.8640    7.5070 H   0  0  0  0  0  0  0  0  0  0  0  0
   -3.5720  -52.1190    6.6910 H   0  0  0  0  0  0  0  0  0  0  0  0
   -3.8260  -49.9420    5.5430 H   0  0  0  0  0  0  0  0  0  0  0  0
   -1.9780  -47.9450    4.8680 Cl  0  0  0  0  0  0  0  0  0  0  0  0
    0.3370  -47.4240    4.8390 H   0  0  0  0  0  0  0  0  0  0  0  0
    2.0570  -47.5140    5.3330 H   0  0  0  0  0  0  0  0  0  0  0  0
    0.9290  -45.5770    6.3440 H   0  0  0  0  0  0  0  0  0  0  0  0
    1.5250  -46.7620    7.6070 H   0  0  0  0  0  0  0  0  0  0  0  0
   -0.5790  -46.0150    8.4210 H   0  0  0  0  0  0  0  0  0  0  0  0
   -1.0610  -47.5810    7.5550 H   0  0  0  0  0  0  0  0  0  0  0  0
   -2.7930  -46.5520    8.8550 H   0  0  0  0  0  0  0  0  0  0  0  0
   -5.7880  -45.1450   10.1660 H   0  0  0  0  0  0  0  0  0  0  0  0
   -6.1250  -46.7720    9.4610 H   0  0  0  0  0  0  0  0  0  0  0  0
   -4.5880  -46.4930   10.3660 H   0  0  0  0  0  0  0  0  0  0  0  0
   -5.0060  -43.4780    4.3020 H   0  0  0  0  0  0  0  0  0  0  0  0
   -6.4070  -44.5380    4.7610 H   0  0  0  0  0  0  0  0  0  0  0  0
   -6.1770  -42.9420    5.5750 H   0  0  0  0  0  0  0  0  0  0  0  0
   -3.0260  -44.5620    5.0050 H   0  0  0  0  0  0  0  0  0  0  0  0
  1  2  2  0  0  0  0
  2  3  1  0  0  0  0
  2  4  1  0  0  0  0
  4  5  1  0  0  0  0
  4 12  2  0  0  0  0
  5  6  1  0  0  0  0
  6  7  1  0  0  0  0
  6 11  2  0  0  0  0
  7  8  2  0  0  0  0
  7 26  1  0  0  0  0
  8  9  1  0  0  0  0
  8 27  1  0  0  0  0
  9 10  2  0  0  0  0
  9 28  1  0  0  0  0
 10 11  1  0  0  0  0
 10 29  1  0  0  0  0
 11 12  1  0  0  0  0
 12 13  1  0  0  0  0
 13 30  1  0  0  0  0
 13 31  1  0  0  0  0
 13 14  1  0  0  0  0
 14 15  1  0  0  0  0
 14 32  1  0  0  0  0
 14 33  1  0  0  0  0
 15 16  1  0  0  0  0
 15 34  1  0  0  0  0
 15 35  1  0  0  0  0
 16 17  1  0  0  0  0
 17 18  1  0  0  0  0
 17 25  2  0  0  0  0
 18 19  2  0  0  0  0
 18 36  1  0  0  0  0
 19 20  1  0  0  0  0
 19 21  1  0  0  0  0
 20 37  1  0  0  0  0
 20 38  1  0  0  0  0
 20 39  1  0  0  0  0
 21 22  1  0  0  0  0
 21 23  2  0  0  0  0
 23 24  1  0  0  0  0
 23 25  1  0  0  0  0
 24 40  1  0  0  0  0
 24 41  1  0  0  0  0
 24 42  1  0  0  0  0
 25 43  1  0  0  0  0
M  CHG  1   3  -1
M  END
$$$$
