23
                    3D
 Schrodinger Suite 2022-3.
 43 46  0  0  1  0  0  0  0  0999 V2000
    3.2430  -48.0340    7.1880 O   0  0  0  0  0  0  0  0  0  0  0  0
    2.8840  -48.9830    6.4790 C   0  0  0  0  0  0  0  0  0  0  0  0
    3.6100  -49.7430    5.8130 O   0  5  0  0  0  0  0  0  0  0  0  0
    1.3990  -49.3680    6.4540 C   0  0  0  0  0  0  0  0  0  0  0  0
    1.1040  -51.0310    6.9430 S   0  0  0  0  0  0  0  0  0  0  0  0
   -0.6130  -50.9060    6.6720 C   0  0  0  0  0  0  0  0  0  0  0  0
   -1.5710  -51.9010    6.8400 C   0  0  0  0  0  0  0  0  0  0  0  0
   -2.8960  -51.5950    6.5280 C   0  0  0  0  0  0  0  0  0  0  0  0
   -3.2400  -50.3120    6.0680 C   0  0  0  0  0  0  0  0  0  0  0  0
   -2.2750  -49.3170    5.9100 C   0  0  0  0  0  0  0  0  0  0  0  0
   -0.9320  -49.6030    6.2090 C   0  0  0  0  0  0  0  0  0  0  0  0
    0.2510  -48.7340    6.1080 C   0  0  0  0  0  0  0  0  0  0  0  0
    0.1270  -47.3150    5.6460 C   0  0  0  0  0  0  0  0  0  0  0  0
    0.1070  -46.3000    6.8020 C   0  0  0  0  0  0  0  0  0  0  0  0
   -1.0740  -46.4460    7.7560 C   0  0  0  0  0  0  0  0  0  0  0  0
   -2.1960  -45.7720    7.0710 O   0  0  0  0  0  0  0  0  0  0  0  0
   -3.4110  -45.7700    7.6900 C   0  0  0  0  0  0  0  0  0  0  0  0
   -6.0050  -45.5640    8.7500 C   0  0  0  0  0  0  0  0  0  0  0  0
   -5.0410  -46.3010    9.3920 C   0  0  0  0  0  0  0  0  0  0  0  0
   -3.7250  -46.4140    8.8730 C   0  0  0  0  0  0  0  0  0  0  0  0
   -1.3150  -52.8980    7.2060 H   0  0  0  0  0  0  0  0  0  0  0  0
   -3.6700  -52.3530    6.6390 H   0  0  0  0  0  0  0  0  0  0  0  0
   -4.2830  -50.0980    5.8330 H   0  0  0  0  0  0  0  0  0  0  0  0
   -2.5850  -48.3330    5.5580 H   0  0  0  0  0  0  0  0  0  0  0  0
   -0.8170  -47.1950    5.0530 H   0  0  0  0  0  0  0  0  0  0  0  0
    0.9850  -47.0550    4.9780 H   0  0  0  0  0  0  0  0  0  0  0  0
    0.0750  -45.2690    6.3740 H   0  0  0  0  0  0  0  0  0  0  0  0
    1.0420  -46.4180    7.4060 H   0  0  0  0  0  0  0  0  0  0  0  0
   -0.9150  -45.8770    8.6970 H   0  0  0  0  0  0  0  0  0  0  0  0
   -1.3740  -47.5020    7.9180 H   0  0  0  0  0  0  0  0  0  0  0  0
   -3.0170  -47.0200    9.4280 H   0  0  0  0  0  0  0  0  0  0  0  0
   -5.7120  -44.9230    7.5070 C   0  0  0  0  0  0  0  0  0  0  0  0
   -4.4020  -45.0060    6.9650 C   0  0  0  0  0  0  0  0  0  0  0  0
   -4.1220  -44.4020    5.7060 C   0  0  0  0  0  0  0  0  0  0  0  0
   -5.1060  -43.7360    5.0160 C   0  0  0  0  0  0  0  0  0  0  0  0
   -6.4230  -43.6680    5.5450 C   0  0  0  0  0  0  0  0  0  0  0  0
   -6.7210  -44.2410    6.7580 C   0  0  0  0  0  0  0  0  0  0  0  0
   -3.1200  -44.5040    5.2840 H   0  0  0  0  0  0  0  0  0  0  0  0
   -4.8930  -43.2660    4.0590 H   0  0  0  0  0  0  0  0  0  0  0  0
   -7.1960  -43.1620    4.9690 H   0  0  0  0  0  0  0  0  0  0  0  0
   -7.7330  -44.2030    7.1570 H   0  0  0  0  0  0  0  0  0  0  0  0
   -5.2830  -46.8270   10.3180 H   0  0  0  0  0  0  0  0  0  0  0  0
   -7.0100  -45.4780    9.1620 H   0  0  0  0  0  0  0  0  0  0  0  0
  1  2  2  0  0  0  0
  2  3  1  0  0  0  0
  2  4  1  0  0  0  0
  4  5  1  0  0  0  0
  4 12  2  0  0  0  0
  5  6  1  0  0  0  0
  6  7  1  0  0  0  0
  6 11  2  0  0  0  0
  7  8  2  0  0  0  0
  7 21  1  0  0  0  0
  8  9  1  0  0  0  0
  8 22  1  0  0  0  0
  9 10  2  0  0  0  0
  9 23  1  0  0  0  0
 10 11  1  0  0  0  0
 10 24  1  0  0  0  0
 11 12  1  0  0  0  0
 12 13  1  0  0  0  0
 13 25  1  0  0  0  0
 13 26  1  0  0  0  0
 13 14  1  0  0  0  0
 14 15  1  0  0  0  0
 14 27  1  0  0  0  0
 14 28  1  0  0  0  0
 15 16  1  0  0  0  0
 15 29  1  0  0  0  0
 15 30  1  0  0  0  0
 16 17  1  0  0  0  0
 17 20  2  0  0  0  0
 17 33  1  0  0  0  0
 18 19  2  0  0  0  0
 18 32  1  0  0  0  0
 18 43  1  0  0  0  0
 19 20  1  0  0  0  0
 19 42  1  0  0  0  0
 20 31  1  0  0  0  0
 32 33  2  0  0  0  0
 32 37  1  0  0  0  0
 33 34  1  0  0  0  0
 34 35  2  0  0  0  0
 34 38  1  0  0  0  0
 35 36  1  0  0  0  0
 35 39  1  0  0  0  0
 36 37  2  0  0  0  0
 36 40  1  0  0  0  0
 37 41  1  0  0  0  0
M  CHG  1   3  -1
M  END
$$$$
