CAT-13b
 OpenBabel02232411143D
Structure written by MMmdl.
 42 44  0  0  1  0  0  0  0  0999 V2000
   14.6840   -5.1870   -0.2450 C   0  0  0  0  0  0  0  0  0  0  0  0
   15.3540   -4.1970   -1.1980 C   0  0  0  0  0  0  0  0  0  0  0  0
   14.9850   -2.7310   -0.9120 C   0  0  2  0  0  0  0  0  0  0  0  0
   15.5200   -1.6790   -1.8660 C   0  0  0  0  0  0  0  0  0  0  0  0
   16.2230   -2.0040   -3.0310 C   0  0  0  0  0  0  0  0  0  0  0  0
   16.6350   -0.9830   -3.8950 C   0  0  0  0  0  0  0  0  0  0  0  0
   16.3710    0.3570   -3.6020 C   0  0  0  0  0  0  0  0  0  0  0  0
   15.6930    0.6990   -2.4190 C   0  0  0  0  0  0  0  0  0  0  0  0
   15.4200    2.1060   -2.0440 C   0  0  0  0  0  0  0  0  0  0  0  0
   15.0030    3.0520   -2.9930 C   0  0  0  0  0  0  0  0  0  0  0  0
   14.6710    4.3520   -2.5950 C   0  0  0  0  0  0  0  0  0  0  0  0
   14.7330    4.7240   -1.2490 C   0  0  0  0  0  0  0  0  0  0  0  0
   15.1610    3.7770   -0.3170 C   0  0  0  0  0  0  0  0  0  0  0  0
   15.1740    4.1720    1.3630 Cl  0  0  0  0  0  0  0  0  0  0  0  0
   15.5320    2.4870   -0.6950 C   0  0  0  0  0  0  0  0  0  0  0  0
   15.2540   -0.3310   -1.5740 C   0  0  0  0  0  0  0  0  0  0  0  0
   15.3930   -2.3710    0.5010 N   0  3  0  0  0  0  0  0  0  0  0  0
   14.2720   -2.3940    1.3420 C   0  0  0  0  0  0  0  0  0  0  0  0
   14.3550   -2.4540    2.7010 N   0  0  0  0  0  0  0  0  0  0  0  0
   13.1050   -2.4290    0.5810 N   0  0  0  0  0  0  0  0  0  0  0  0
   11.7640   -2.2190    1.1600 C   0  0  0  0  0  0  0  0  0  0  0  0
   13.4290   -2.5980   -0.8520 C   0  0  0  0  0  0  0  0  0  0  0  0
   12.5880   -2.6070   -1.6920 O   0  0  0  0  0  0  0  0  0  0  0  0
   13.6010   -5.3020   -0.4810 H   0  0  0  0  0  0  0  0  0  0  0  0
   15.1660   -6.1870   -0.3540 H   0  0  0  0  0  0  0  0  0  0  0  0
   14.7930   -4.8790    0.8180 H   0  0  0  0  0  0  0  0  0  0  0  0
   15.0450   -4.4440   -2.2460 H   0  0  0  0  0  0  0  0  0  0  0  0
   16.4690   -4.3010   -1.1160 H   0  0  0  0  0  0  0  0  0  0  0  0
   16.4520   -3.0410   -3.2780 H   0  0  0  0  0  0  0  0  0  0  0  0
   17.1790   -1.2380   -4.8110 H   0  0  0  0  0  0  0  0  0  0  0  0
   16.6960    1.1340   -4.3000 H   0  0  0  0  0  0  0  0  0  0  0  0
   14.9180    2.7730   -4.0480 H   0  0  0  0  0  0  0  0  0  0  0  0
   14.3360    5.0770   -3.3470 H   0  0  0  0  0  0  0  0  0  0  0  0
   14.4320    5.7260   -0.9370 H   0  0  0  0  0  0  0  0  0  0  0  0
   15.8890    1.7710    0.0460 H   0  0  0  0  0  0  0  0  0  0  0  0
   14.6980   -0.0900   -0.6710 H   0  0  0  0  0  0  0  0  0  0  0  0
   16.3040   -2.7400    0.8820 H   0  0  0  0  0  0  0  0  0  0  0  0
   13.6070   -2.0530    3.3170 H   0  0  0  0  0  0  0  0  0  0  0  0
   11.6970   -2.7010    2.1730 H   0  0  0  0  0  0  0  0  0  0  0  0
   11.5730   -1.1180    1.2530 H   0  0  0  0  0  0  0  0  0  0  0  0
   10.9930   -2.6870    0.4910 H   0  0  0  0  0  0  0  0  0  0  0  0
   15.3140   -2.3970    3.1430 H   0  0  0  0  0  0  0  0  0  0  0  0
  1  2  1  0  0  0  0
  1 24  1  0  0  0  0
  1 25  1  0  0  0  0
  1 26  1  0  0  0  0
  2 27  1  0  0  0  0
  2 28  1  0  0  0  0
  3  2  1  6  0  0  0
  3  4  1  0  0  0  0
  3 17  1  0  0  0  0
  3 22  1  0  0  0  0
  4  5  2  0  0  0  0
  4 16  1  0  0  0  0
  5  6  1  0  0  0  0
  5 29  1  0  0  0  0
  6  7  2  0  0  0  0
  6 30  1  0  0  0  0
  7  8  1  0  0  0  0
  7 31  1  0  0  0  0
  8  9  1  0  0  0  0
  8 16  2  0  0  0  0
  9 10  2  0  0  0  0
  9 15  1  0  0  0  0
 10 11  1  0  0  0  0
 10 32  1  0  0  0  0
 11 12  2  0  0  0  0
 11 33  1  0  0  0  0
 12 13  1  0  0  0  0
 12 34  1  0  0  0  0
 13 14  1  0  0  0  0
 13 15  2  0  0  0  0
 15 35  1  0  0  0  0
 16 36  1  0  0  0  0
 17 18  2  0  0  0  0
 17 37  1  0  0  0  0
 18 19  1  0  0  0  0
 18 20  1  0  0  0  0
 19 38  1  0  0  0  0
 19 42  1  0  0  0  0
 20 21  1  0  0  0  0
 20 22  1  0  0  0  0
 21 39  1  0  0  0  0
 21 40  1  0  0  0  0
 21 41  1  0  0  0  0
 22 23  2  0  0  0  0
M  CHG  1  17   1
M  END
$$$$
