18639-1
 OpenBabel02232411163D
Structure written by MMmdl.
 48 49  0  0  0  0  0  0  0  0999 V2000
   24.4240   10.9380   30.7450 C   0  0  0  0  0  0  0  0  0  0  0  0
   23.0950   11.2810   30.1080 C   0  0  0  0  0  0  0  0  0  0  0  0
   22.0200   11.3370   31.1220 O   0  0  0  0  0  0  0  0  0  0  0  0
   21.4420   10.1860   31.5330 C   0  0  0  0  0  0  0  0  0  0  0  0
   21.9270    8.9980   31.1020 N   0  0  0  0  0  0  0  0  0  0  0  0
   21.2370    7.8530   31.4710 C   0  0  0  0  0  0  0  0  0  0  0  0
   20.1000    7.8830   32.2700 C   0  0  0  0  0  0  0  0  0  0  0  0
   19.6060    9.1330   32.7310 C   0  0  0  0  0  0  0  0  0  0  0  0
   18.4710    9.1670   33.5000 N   0  0  0  0  0  0  0  0  0  0  0  0
   20.2930   10.3350   32.3660 C   0  0  0  0  0  0  0  0  0  0  0  0
   19.8780   11.6320   32.7360 C   0  0  0  0  0  0  0  0  0  0  0  0
   19.5880   12.7240   32.9990 N   0  0  0  0  0  0  0  0  0  0  0  0
   21.8300    6.6900   30.9260 N   0  0  0  0  0  0  0  0  0  0  0  0
   21.2640    5.4000   30.8720 C   0  0  0  0  0  0  0  0  0  0  0  0
   20.1880    5.1280   31.3620 O   0  0  0  0  0  0  0  0  0  0  0  0
   22.0980    4.4080   30.0680 C   0  0  0  0  0  0  0  0  0  0  0  0
   23.4710    4.1580   30.6180 C   0  0  0  0  0  0  0  0  0  0  0  0
   24.5550    5.0350   30.2960 C   0  0  0  0  0  0  0  0  0  0  0  0
   24.1790    6.0850   29.4680 O   0  0  0  0  0  0  0  0  0  0  0  0
   25.1240    7.1770   29.2890 C   0  0  0  0  0  0  0  0  0  0  0  0
   25.8420    4.8020   30.7550 C   0  0  0  0  0  0  0  0  0  0  0  0
   26.0930    3.6860   31.5800 C   0  0  0  0  0  0  0  0  0  0  0  0
   27.4520    3.4430   32.0700 N   0  3  0  0  0  0  0  0  0  0  0  0
   27.6060    2.6350   32.9720 O   0  5  0  0  0  0  0  0  0  0  0  0
   28.3790    4.0560   31.5520 O   0  0  0  0  0  0  0  0  0  0  0  0
   25.0330    2.8080   31.9080 C   0  0  0  0  0  0  0  0  0  0  0  0
   23.7310    3.0520   31.4110 C   0  0  0  0  0  0  0  0  0  0  0  0
   25.3990    1.7680   32.7090 O   0  0  0  0  0  0  0  0  0  0  0  0
   24.4160    0.7180   32.9490 C   0  0  0  0  0  0  0  0  0  0  0  0
   25.2150   10.9060   29.9540 H   0  0  0  0  0  0  0  0  0  0  0  0
   24.7130   11.6980   31.5020 H   0  0  0  0  0  0  0  0  0  0  0  0
   24.3920    9.9340   31.2300 H   0  0  0  0  0  0  0  0  0  0  0  0
   23.0580   12.3360   29.7450 H   0  0  0  0  0  0  0  0  0  0  0  0
   22.8120   10.5580   29.3100 H   0  0  0  0  0  0  0  0  0  0  0  0
   19.5700    6.9640   32.5310 H   0  0  0  0  0  0  0  0  0  0  0  0
   17.9720    8.2920   33.7520 H   0  0  0  0  0  0  0  0  0  0  0  0
   18.0560   10.0500   33.7970 H   0  0  0  0  0  0  0  0  0  0  0  0
   22.7380    6.8500   30.4200 H   0  0  0  0  0  0  0  0  0  0  0  0
   21.5360    3.4370   30.0160 H   0  0  0  0  0  0  0  0  0  0  0  0
   22.1970    4.8140   29.0210 H   0  0  0  0  0  0  0  0  0  0  0  0
   25.4810    7.5550   30.2710 H   0  0  0  0  0  0  0  0  0  0  0  0
   25.9550    6.8310   28.6380 H   0  0  0  0  0  0  0  0  0  0  0  0
   24.4860    7.9340   28.7760 H   0  0  0  0  0  0  0  0  0  0  0  0
   26.6740    5.4600   30.4760 H   0  0  0  0  0  0  0  0  0  0  0  0
   22.9240    2.3540   31.6500 H   0  0  0  0  0  0  0  0  0  0  0  0
   25.0160   -0.0140   33.5410 H   0  0  0  0  0  0  0  0  0  0  0  0
   23.5690    1.1160   33.5460 H   0  0  0  0  0  0  0  0  0  0  0  0
   24.0880    0.2740   31.9830 H   0  0  0  0  0  0  0  0  0  0  0  0
  1  2  1  0  0  0  0
  1 30  1  0  0  0  0
  1 31  1  0  0  0  0
  1 32  1  0  0  0  0
  2  3  1  0  0  0  0
  2 33  1  0  0  0  0
  2 34  1  0  0  0  0
  3  4  1  0  0  0  0
  4 10  2  0  0  0  0
  4  5  1  0  0  0  0
  5  6  2  0  0  0  0
  6  7  1  0  0  0  0
  6 13  1  0  0  0  0
  7  8  2  0  0  0  0
  7 35  1  0  0  0  0
  8  9  1  0  0  0  0
  8 10  1  0  0  0  0
  9 36  1  0  0  0  0
  9 37  1  0  0  0  0
 10 11  1  0  0  0  0
 11 12  3  0  0  0  0
 13 14  1  0  0  0  0
 13 38  1  0  0  0  0
 14 15  2  0  0  0  0
 14 16  1  0  0  0  0
 16 17  1  0  0  0  0
 16 39  1  0  0  0  0
 16 40  1  0  0  0  0
 17 27  2  0  0  0  0
 17 18  1  0  0  0  0
 18 19  1  0  0  0  0
 18 21  2  0  0  0  0
 19 20  1  0  0  0  0
 20 41  1  0  0  0  0
 20 42  1  0  0  0  0
 20 43  1  0  0  0  0
 21 22  1  0  0  0  0
 21 44  1  0  0  0  0
 22 23  1  0  0  0  0
 22 26  2  0  0  0  0
 23 24  1  0  0  0  0
 23 25  2  0  0  0  0
 26 27  1  0  0  0  0
 26 28  1  0  0  0  0
 27 45  1  0  0  0  0
 28 29  1  0  0  0  0
 29 46  1  0  0  0  0
 29 47  1  0  0  0  0
 29 48  1  0  0  0  0
M  CHG  2  23   1  24  -1
M  END
$$$$
