29
                    3D
 Schrodinger Suite 2022-3.
 56 59  0  0  1  0  0  0  0  0999 V2000
    2.0750   28.8860    6.7490 C   0  0  0  0  0  0  0  0  0  0  0  0
   -1.4510   31.4700    7.8100 C   0  0  0  0  0  0  0  0  0  0  0  0
   -0.0460   26.0280    8.8760 C   0  0  0  0  0  0  0  0  0  0  0  0
   -0.9120   25.4370    9.9980 C   0  0  0  0  0  0  0  0  0  0  0  0
   -0.8320   23.8970    9.8940 C   0  0  0  0  0  0  0  0  0  0  0  0
   -1.6060   23.2280   11.0380 C   0  0  0  0  0  0  0  0  0  0  0  0
   -1.1270   23.7200   12.4130 C   0  0  0  0  0  0  0  0  0  0  0  0
   -1.2150   25.2510   12.5190 C   0  0  0  0  0  0  0  0  0  0  0  0
   -0.4500   25.9390   11.3790 C   0  0  0  0  0  0  0  0  0  0  0  0
    4.3010   24.9610    6.7870 C   0  0  0  0  0  0  0  0  0  0  0  0
    5.0230   24.7200    5.6110 C   0  0  0  0  0  0  0  0  0  0  0  0
    5.3340   25.8070    4.7770 C   0  0  0  0  0  0  0  0  0  0  0  0
    4.7960   27.0600    5.0250 C   0  0  0  0  0  0  0  0  0  0  0  0
    1.3620   27.9310    7.4650 N   0  0  0  0  0  0  0  0  0  0  0  0
    0.1500   28.2670    7.9870 C   0  0  0  0  0  0  0  0  0  0  0  0
   -0.5780   27.4000    8.6980 O   0  0  0  0  0  0  0  0  0  0  0  0
   -0.3750   29.5750    7.8020 C   0  0  0  0  0  0  0  0  0  0  0  0
   -1.5460   30.2090    8.2360 N   0  0  0  0  0  0  0  0  0  0  0  0
   -0.2180   31.7180    7.1080 N   0  0  0  0  0  0  0  0  0  0  0  0
    0.4620   30.5050    7.0680 C   0  0  0  0  0  0  0  0  0  0  0  0
    1.6710   30.1880    6.5020 N   0  0  0  0  0  0  0  0  0  0  0  0
    3.3290   28.5480    6.2230 N   0  0  0  0  0  0  0  0  0  0  0  0
    3.9320   27.2610    6.1310 C   0  0  0  0  0  0  0  0  0  0  0  0
    3.7680   26.2250    7.0640 C   0  0  0  0  0  0  0  0  0  0  0  0
   -2.1770   32.2660    7.9530 H   0  0  0  0  0  0  0  0  0  0  0  0
   -0.2200   25.5200    7.9080 H   0  0  0  0  0  0  0  0  0  0  0  0
    1.0290   26.0810    9.1480 H   0  0  0  0  0  0  0  0  0  0  0  0
   -1.9740   25.7560    9.8410 H   0  0  0  0  0  0  0  0  0  0  0  0
    0.2370   23.5760    9.9400 H   0  0  0  0  0  0  0  0  0  0  0  0
   -1.2630   23.5670    8.9230 H   0  0  0  0  0  0  0  0  0  0  0  0
   -1.4760   22.1230   10.9790 H   0  0  0  0  0  0  0  0  0  0  0  0
   -2.6880   23.4660   10.9280 H   0  0  0  0  0  0  0  0  0  0  0  0
   -0.0700   23.4030   12.5730 H   0  0  0  0  0  0  0  0  0  0  0  0
   -1.7580   23.2600   13.2080 H   0  0  0  0  0  0  0  0  0  0  0  0
   -0.7720   25.5710   13.4920 H   0  0  0  0  0  0  0  0  0  0  0  0
   -2.2850   25.5620   12.5020 H   0  0  0  0  0  0  0  0  0  0  0  0
   -0.6080   27.0390   11.4420 H   0  0  0  0  0  0  0  0  0  0  0  0
    0.6400   25.7310   11.5100 H   0  0  0  0  0  0  0  0  0  0  0  0
    4.1060   24.1500    7.5020 H   0  0  0  0  0  0  0  0  0  0  0  0
    5.9810   25.6860    3.8980 H   0  0  0  0  0  0  0  0  0  0  0  0
    5.0210   27.8750    4.3380 H   0  0  0  0  0  0  0  0  0  0  0  0
    0.0080   32.5880    6.6060 H   0  0  0  0  0  0  0  0  0  0  0  0
    3.7510   29.2560    5.5650 H   0  0  0  0  0  0  0  0  0  0  0  0
    3.1920   26.3760    7.9800 H   0  0  0  0  0  0  0  0  0  0  0  0
    5.3820   23.1240    5.0650 S   0  0  0  0  0  0  0  0  0  0  0  0
    5.3620   22.1520    6.1770 O   0  0  0  0  0  0  0  0  0  0  0  0
    6.6470   23.0840    4.3150 O   0  0  0  0  0  0  0  0  0  0  0  0
    4.0200   22.7640    4.0680 N   0  0  0  0  0  0  0  0  0  0  0  0
    3.7570   23.7020    2.9410 C   0  0  0  0  0  0  0  0  0  0  0  0
    2.8540   23.3440    2.3770 H   0  0  0  0  0  0  0  0  0  0  0  0
    3.5150   24.7130    3.3550 H   0  0  0  0  0  0  0  0  0  0  0  0
    4.6050   23.7780    2.2130 H   0  0  0  0  0  0  0  0  0  0  0  0
    3.8880   21.3450    3.6380 C   0  0  0  0  0  0  0  0  0  0  0  0
    2.8650   21.2060    3.1920 H   0  0  0  0  0  0  0  0  0  0  0  0
    4.6460   21.0460    2.8710 H   0  0  0  0  0  0  0  0  0  0  0  0
    3.9550   20.6740    4.5310 H   0  0  0  0  0  0  0  0  0  0  0  0
  1 14  1  0  0  0  0
  1 21  2  0  0  0  0
  1 22  1  0  0  0  0
  2 18  2  0  0  0  0
  2 19  1  0  0  0  0
  2 25  1  0  0  0  0
  3  4  1  0  0  0  0
  3 16  1  0  0  0  0
  3 26  1  0  0  0  0
  3 27  1  0  0  0  0
  4  5  1  0  0  0  0
  4  9  1  0  0  0  0
  4 28  1  0  0  0  0
  5  6  1  0  0  0  0
  5 29  1  0  0  0  0
  5 30  1  0  0  0  0
  6  7  1  0  0  0  0
  6 31  1  0  0  0  0
  6 32  1  0  0  0  0
  7  8  1  0  0  0  0
  7 33  1  0  0  0  0
  7 34  1  0  0  0  0
  8  9  1  0  0  0  0
  8 35  1  0  0  0  0
  8 36  1  0  0  0  0
  9 37  1  0  0  0  0
  9 38  1  0  0  0  0
 10 11  1  0  0  0  0
 10 24  2  0  0  0  0
 10 39  1  0  0  0  0
 11 12  2  0  0  0  0
 11 45  1  0  0  0  0
 12 13  1  0  0  0  0
 12 40  1  0  0  0  0
 13 23  2  0  0  0  0
 13 41  1  0  0  0  0
 14 15  2  0  0  0  0
 15 16  1  0  0  0  0
 15 17  1  0  0  0  0
 17 18  1  0  0  0  0
 17 20  2  0  0  0  0
 19 20  1  0  0  0  0
 19 42  1  0  0  0  0
 20 21  1  0  0  0  0
 22 23  1  0  0  0  0
 22 43  1  0  0  0  0
 23 24  1  0  0  0  0
 24 44  1  0  0  0  0
 45 46  2  0  0  0  0
 45 47  2  0  0  0  0
 45 48  1  0  0  0  0
 48 49  1  0  0  0  0
 48 53  1  0  0  0  0
 49 50  1  0  0  0  0
 49 51  1  0  0  0  0
 49 52  1  0  0  0  0
 53 54  1  0  0  0  0
 53 55  1  0  0  0  0
 53 56  1  0  0  0  0
M  END
$$$$
