18633-1
                    3D
 Schrodinger Suite 2022-3.
 42 43  0  0  1  0  0  0  0  0999 V2000
   25.2800    3.1520   31.8390 C   0  0  0  0  0  0  0  0  0  0  0  0
   23.9370    3.2550   31.5010 C   0  0  0  0  0  0  0  0  0  0  0  0
   23.5120    4.1360   30.4850 C   0  0  0  0  0  0  0  0  0  0  0  0
   24.4650    4.8970   29.7980 C   0  0  0  0  0  0  0  0  0  0  0  0
   25.8250    4.8070   30.1170 C   0  0  0  0  0  0  0  0  0  0  0  0
   26.2220    3.9370   31.1370 C   0  0  0  0  0  0  0  0  0  0  0  0
   22.0520    4.2310   30.1390 C   0  0  0  0  0  0  0  0  0  0  0  0
   21.2800    5.2470   30.9660 C   0  0  0  0  0  0  0  0  0  0  0  0
   21.8470    6.5440   30.9760 N   0  0  0  0  0  0  0  0  0  0  0  0
   21.2780    7.7140   31.5310 C   0  0  0  0  0  0  0  0  0  0  0  0
   20.2270    5.0000   31.5160 O   0  0  0  0  0  0  0  0  0  0  0  0
   22.0200    8.8420   31.2150 N   0  0  0  0  0  0  0  0  0  0  0  0
   21.5420   10.0410   31.6200 C   0  0  0  0  0  0  0  0  0  0  0  0
   20.3430   10.2200   32.3740 C   0  0  0  0  0  0  0  0  0  0  0  0
   19.6250    9.0320   32.7240 C   0  0  0  0  0  0  0  0  0  0  0  0
   20.1100    7.7700   32.2850 C   0  0  0  0  0  0  0  0  0  0  0  0
   18.4710    9.0930   33.4630 N   0  0  0  0  0  0  0  0  0  0  0  0
   19.9200   11.5270   32.6960 C   0  0  0  0  0  0  0  0  0  0  0  0
   22.1980   11.1730   31.2850 O   0  0  0  0  0  0  0  0  0  0  0  0
   23.4760   11.0910   30.5480 C   0  0  0  0  0  0  0  0  0  0  0  0
   23.2370   10.8250   29.0770 C   0  0  0  0  0  0  0  0  0  0  0  0
   19.6200   12.6260   32.9150 N   0  0  0  0  0  0  0  0  0  0  0  0
   25.6080    2.4710   32.6280 H   0  0  0  0  0  0  0  0  0  0  0  0
   24.1690    5.5780   28.9950 H   0  0  0  0  0  0  0  0  0  0  0  0
   19.5500    6.8650   32.5300 H   0  0  0  0  0  0  0  0  0  0  0  0
   21.5800    3.2230   30.2870 H   0  0  0  0  0  0  0  0  0  0  0  0
   21.9270    4.5180   29.0630 H   0  0  0  0  0  0  0  0  0  0  0  0
   22.7520    6.6880   30.4860 H   0  0  0  0  0  0  0  0  0  0  0  0
   17.9600    8.2300   33.7290 H   0  0  0  0  0  0  0  0  0  0  0  0
   18.0720    9.9860   33.7530 H   0  0  0  0  0  0  0  0  0  0  0  0
   24.1250   10.3180   31.0180 H   0  0  0  0  0  0  0  0  0  0  0  0
   23.8500   12.1270   30.7330 H   0  0  0  0  0  0  0  0  0  0  0  0
   24.1940   10.9770   28.5170 H   0  0  0  0  0  0  0  0  0  0  0  0
   22.9000    9.7760   28.9030 H   0  0  0  0  0  0  0  0  0  0  0  0
   22.4770   11.5200   28.6550 H   0  0  0  0  0  0  0  0  0  0  0  0
   27.5150    3.7240   31.5600 O   0  0  0  0  0  0  0  0  0  0  0  0
   26.5400    5.4170   29.5610 H   0  0  0  0  0  0  0  0  0  0  0  0
   23.2070    2.6300   32.0230 H   0  0  0  0  0  0  0  0  0  0  0  0
   28.5730    4.4810   30.9180 C   0  0  0  0  0  0  0  0  0  0  0  0
   29.4770    4.1180   31.4630 H   0  0  0  0  0  0  0  0  0  0  0  0
   28.6280    4.2240   29.8380 H   0  0  0  0  0  0  0  0  0  0  0  0
   28.4180    5.5700   31.0770 H   0  0  0  0  0  0  0  0  0  0  0  0
  1  2  1  0  0  0  0
  1  6  2  0  0  0  0
  1 23  1  0  0  0  0
  2  3  2  0  0  0  0
  2 38  1  0  0  0  0
  3  4  1  0  0  0  0
  3  7  1  0  0  0  0
  4  5  2  0  0  0  0
  4 24  1  0  0  0  0
  5  6  1  0  0  0  0
  5 37  1  0  0  0  0
  6 36  1  0  0  0  0
  7  8  1  0  0  0  0
  7 26  1  0  0  0  0
  7 27  1  0  0  0  0
  8  9  1  0  0  0  0
  8 11  2  0  0  0  0
  9 10  1  0  0  0  0
  9 28  1  0  0  0  0
 10 12  1  0  0  0  0
 10 16  2  0  0  0  0
 12 13  2  0  0  0  0
 13 14  1  0  0  0  0
 13 19  1  0  0  0  0
 14 15  2  0  0  0  0
 14 18  1  0  0  0  0
 15 16  1  0  0  0  0
 15 17  1  0  0  0  0
 16 25  1  0  0  0  0
 17 29  1  0  0  0  0
 17 30  1  0  0  0  0
 18 22  3  0  0  0  0
 19 20  1  0  0  0  0
 20 21  1  0  0  0  0
 20 31  1  0  0  0  0
 20 32  1  0  0  0  0
 21 33  1  0  0  0  0
 21 34  1  0  0  0  0
 21 35  1  0  0  0  0
 36 39  1  0  0  0  0
 39 40  1  0  0  0  0
 39 41  1  0  0  0  0
 39 42  1  0  0  0  0
M  END
$$$$
