p38a_2u
 OpenBabel02232411163D
Structure written by MMmdl.
 64 68  0  0  0  0  0  0  0  0999 V2000
   38.2260   36.4900   17.2390 C   0  0  0  0  0  0  0  0  0  0  0  0
   34.5340   35.2080   21.4260 C   0  0  0  0  0  0  0  0  0  0  0  0
   37.4570   36.0750   18.3240 C   0  0  0  0  0  0  0  0  0  0  0  0
   34.0820   39.3670   23.8560 C   0  0  0  0  0  0  0  0  0  0  0  0
   34.6480   38.0860   21.4790 C   0  0  0  0  0  0  0  0  0  0  0  0
   35.0250   37.3910   20.2790 C   0  0  0  0  0  0  0  0  0  0  0  0
   37.5560   36.6220   16.0150 C   0  0  0  0  0  0  0  0  0  0  0  0
   36.2000   36.3350   15.8440 C   0  0  0  0  0  0  0  0  0  0  0  0
   35.4520   35.9130   16.9490 C   0  0  0  0  0  0  0  0  0  0  0  0
   34.3030   37.3500   22.6500 C   0  0  0  0  0  0  0  0  0  0  0  0
   34.6190   39.5040   21.5790 C   0  0  0  0  0  0  0  0  0  0  0  0
   35.0090   36.0390   20.2830 C   0  0  0  0  0  0  0  0  0  0  0  0
   36.0850   35.7740   18.1870 C   0  0  0  0  0  0  0  0  0  0  0  0
   38.0160   35.9570   19.5210 F   0  0  0  0  0  0  0  0  0  0  0  0
   35.3770   35.1870   19.2440 O   0  0  0  0  0  0  0  0  0  0  0  0
   34.3510   40.1560   22.7190 N   0  0  0  0  0  0  0  0  0  0  0  0
   34.4040   34.0030   21.3840 O   0  0  0  0  0  0  0  0  0  0  0  0
   34.2100   35.9420   22.6200 N   0  0  0  0  0  0  0  0  0  0  0  0
   34.0460   37.9860   23.8360 N   0  0  0  0  0  0  0  0  0  0  0  0
   33.7770   40.0080   25.0330 N   0  0  0  0  0  0  0  0  0  0  0  0
   39.2860   36.7360   17.3450 H   0  0  0  0  0  0  0  0  0  0  0  0
   35.3260   37.9810   19.4110 H   0  0  0  0  0  0  0  0  0  0  0  0
   35.7140   36.4490   14.8720 H   0  0  0  0  0  0  0  0  0  0  0  0
   34.3820   35.7080   16.8380 H   0  0  0  0  0  0  0  0  0  0  0  0
   34.8190   40.1150   20.6830 H   0  0  0  0  0  0  0  0  0  0  0  0
   33.9030   41.0350   25.1090 H   0  0  0  0  0  0  0  0  0  0  0  0
   38.2430   37.0810   14.9710 F   0  0  0  0  0  0  0  0  0  0  0  0
   32.5890   39.3730   28.6100 C   0  0  0  0  0  0  0  0  0  0  0  0
   32.6610   40.0410   27.2310 C   0  0  0  0  0  0  0  0  0  0  0  0
   33.6470   39.2720   26.3290 C   0  0  0  0  0  0  0  0  0  0  0  0
   35.0210   39.1470   27.0230 C   0  0  0  0  0  0  0  0  0  0  0  0
   34.8450   38.5210   28.4120 C   0  0  0  0  0  0  0  0  0  0  0  0
   33.8950   39.2560   29.2180 O   0  0  0  0  0  0  0  0  0  0  0  0
   32.1300   38.3600   28.5380 H   0  0  0  0  0  0  0  0  0  0  0  0
   32.0490   40.0200   29.3400 H   0  0  0  0  0  0  0  0  0  0  0  0
   32.9970   41.0990   27.3510 H   0  0  0  0  0  0  0  0  0  0  0  0
   31.6490   40.0480   26.7600 H   0  0  0  0  0  0  0  0  0  0  0  0
   33.2350   38.2440   26.1220 H   0  0  0  0  0  0  0  0  0  0  0  0
   35.6950   38.4980   26.4140 H   0  0  0  0  0  0  0  0  0  0  0  0
   35.4910   40.1550   27.1160 H   0  0  0  0  0  0  0  0  0  0  0  0
   34.5070   37.4630   28.3300 H   0  0  0  0  0  0  0  0  0  0  0  0
   35.7800   38.6080   29.0120 H   0  0  0  0  0  0  0  0  0  0  0  0
   34.3470   33.1790   25.2900 C   0  0  0  0  0  0  0  0  0  0  0  0
   34.8840   34.3900   24.4860 C   0  0  0  0  0  0  0  0  0  0  0  0
   33.7430   35.2180   23.8670 C   0  0  0  0  0  0  0  0  0  0  0  0
   32.5140   34.3440   23.5700 C   0  0  0  0  0  0  0  0  0  0  0  0
   31.9400   33.8160   24.9000 C   0  0  0  0  0  0  0  0  0  0  0  0
   35.0890   32.9920   26.1100 H   0  0  0  0  0  0  0  0  0  0  0  0
   34.3090   32.2870   24.6130 H   0  0  0  0  0  0  0  0  0  0  0  0
   35.5740   33.9930   23.7070 H   0  0  0  0  0  0  0  0  0  0  0  0
   35.4690   35.0490   25.1730 H   0  0  0  0  0  0  0  0  0  0  0  0
   33.4340   35.9990   24.6280 H   0  0  0  0  0  0  0  0  0  0  0  0
   31.7220   34.9430   23.0590 H   0  0  0  0  0  0  0  0  0  0  0  0
   32.7960   33.4910   22.9060 H   0  0  0  0  0  0  0  0  0  0  0  0
   31.3390   34.6370   25.3840 H   0  0  0  0  0  0  0  0  0  0  0  0
   31.2760   32.9420   24.6640 H   0  0  0  0  0  0  0  0  0  0  0  0
   33.0060   33.4400   25.8850 N   0  0  0  0  0  0  0  0  0  0  0  0
   32.4770   32.5830   27.2820 S   0  0  0  0  0  0  0  0  0  0  0  0
   31.3500   31.7060   26.8960 O   0  0  0  0  0  0  0  0  0  0  0  0
   32.0600   33.5720   28.2940 O   0  0  0  0  0  0  0  0  0  0  0  0
   33.8090   31.6440   27.8730 C   0  0  0  0  0  0  0  0  0  0  0  0
   34.6620   32.2780   28.2310 H   0  0  0  0  0  0  0  0  0  0  0  0
   33.5010   31.0230   28.7610 H   0  0  0  0  0  0  0  0  0  0  0  0
   34.2040   30.9150   27.1180 H   0  0  0  0  0  0  0  0  0  0  0  0
  1  3  2  0  0  0  0
  1  7  1  0  0  0  0
  1 21  1  0  0  0  0
  2 12  1  0  0  0  0
  2 17  2  0  0  0  0
  2 18  1  0  0  0  0
  3 13  1  0  0  0  0
  3 14  1  0  0  0  0
  4 16  2  0  0  0  0
  4 19  1  0  0  0  0
  4 20  1  0  0  0  0
  5  6  1  0  0  0  0
  5 10  1  0  0  0  0
  5 11  2  0  0  0  0
  6 12  2  0  0  0  0
  6 22  1  0  0  0  0
  7  8  2  0  0  0  0
  7 27  1  0  0  0  0
  8  9  1  0  0  0  0
  8 23  1  0  0  0  0
  9 13  2  0  0  0  0
  9 24  1  0  0  0  0
 10 18  1  0  0  0  0
 10 19  2  0  0  0  0
 11 16  1  0  0  0  0
 11 25  1  0  0  0  0
 12 15  1  0  0  0  0
 13 15  1  0  0  0  0
 18 45  1  0  0  0  0
 20 26  1  0  0  0  0
 20 30  1  0  0  0  0
 28 29  1  0  0  0  0
 28 33  1  0  0  0  0
 28 34  1  0  0  0  0
 28 35  1  0  0  0  0
 29 30  1  0  0  0  0
 29 36  1  0  0  0  0
 29 37  1  0  0  0  0
 30 31  1  0  0  0  0
 30 38  1  0  0  0  0
 31 32  1  0  0  0  0
 31 39  1  0  0  0  0
 31 40  1  0  0  0  0
 32 33  1  0  0  0  0
 32 41  1  0  0  0  0
 32 42  1  0  0  0  0
 43 44  1  0  0  0  0
 43 48  1  0  0  0  0
 43 49  1  0  0  0  0
 43 57  1  0  0  0  0
 44 45  1  0  0  0  0
 44 50  1  0  0  0  0
 44 51  1  0  0  0  0
 45 46  1  0  0  0  0
 45 52  1  0  0  0  0
 46 47  1  0  0  0  0
 46 53  1  0  0  0  0
 46 54  1  0  0  0  0
 47 55  1  0  0  0  0
 47 56  1  0  0  0  0
 47 57  1  0  0  0  0
 57 58  1  0  0  0  0
 58 59  2  0  0  0  0
 58 60  2  0  0  0  0
 58 61  1  0  0  0  0
 61 62  1  0  0  0  0
 61 63  1  0  0  0  0
 61 64  1  0  0  0  0
M  END
$$$$
