CAT-13k
                    3D
 Schrodinger Suite 2022-3.
 45 48  0  0  1  0  0  0  0  0999 V2000
   11.7610   -2.4720    1.3180 C   0  0  0  0  0  0  0  0  0  0  0  0
   13.0490   -2.8220    0.6850 N   0  0  0  0  0  0  0  0  0  0  0  0
   14.2560   -2.7410    1.3910 C   0  0  0  0  0  0  0  0  0  0  0  0
   14.3910   -2.6630    2.7450 N   0  0  0  0  0  0  0  0  0  0  0  0
   15.3170   -2.8430    0.5090 N   0  3  0  0  0  0  0  0  0  0  0  0
   14.8580   -3.1410   -0.9030 C   0  0  2  0  0  0  0  0  0  0  0  0
   15.2190   -4.5630   -1.2650 C   0  0  0  0  0  0  0  0  0  0  0  0
   14.3170   -5.4150   -1.9240 C   0  0  0  0  0  0  0  0  0  0  0  0
   14.6540   -6.7560   -2.1060 C   0  0  0  0  0  0  0  0  0  0  0  0
   15.8980   -7.2180   -1.6460 C   0  0  0  0  0  0  0  0  0  0  0  0
   16.8160   -6.3860   -1.0890 N   0  0  0  0  0  0  0  0  0  0  0  0
   16.4820   -5.0860   -0.9050 C   0  0  0  0  0  0  0  0  0  0  0  0
   15.3570   -2.0410   -1.8210 C   0  0  0  0  0  0  0  0  0  0  0  0
   16.0360   -2.3170   -3.0100 C   0  0  0  0  0  0  0  0  0  0  0  0
   16.4460   -1.2550   -3.8280 C   0  0  0  0  0  0  0  0  0  0  0  0
   16.1840    0.0680   -3.4720 C   0  0  0  0  0  0  0  0  0  0  0  0
   15.5040    0.3530   -2.2730 C   0  0  0  0  0  0  0  0  0  0  0  0
   15.2180    1.7450   -1.8550 C   0  0  0  0  0  0  0  0  0  0  0  0
   14.6330    2.6590   -2.7440 C   0  0  0  0  0  0  0  0  0  0  0  0
   14.3490    3.9640   -2.3290 C   0  0  0  0  0  0  0  0  0  0  0  0
   14.6190    4.3690   -1.0180 C   0  0  0  0  0  0  0  0  0  0  0  0
   15.1820    3.4410   -0.1380 C   0  0  0  0  0  0  0  0  0  0  0  0
   15.4430    3.8790    1.5090 Cl  0  0  0  0  0  0  0  0  0  0  0  0
   15.5030    2.1440   -0.5390 C   0  0  0  0  0  0  0  0  0  0  0  0
   15.0890   -0.7080   -1.4610 C   0  0  0  0  0  0  0  0  0  0  0  0
   13.2990   -2.9810   -0.7520 C   0  0  0  0  0  0  0  0  0  0  0  0
   12.4210   -2.9740   -1.5560 O   0  0  0  0  0  0  0  0  0  0  0  0
   11.7440   -1.3710    1.5310 H   0  0  0  0  0  0  0  0  0  0  0  0
   10.9180   -2.7430    0.6280 H   0  0  0  0  0  0  0  0  0  0  0  0
   11.6410   -3.0420    2.2800 H   0  0  0  0  0  0  0  0  0  0  0  0
   15.3630   -2.5490    3.1460 H   0  0  0  0  0  0  0  0  0  0  0  0
   16.2890   -3.0300    0.8600 H   0  0  0  0  0  0  0  0  0  0  0  0
   13.3550   -5.0460   -2.2960 H   0  0  0  0  0  0  0  0  0  0  0  0
   13.9540   -7.4440   -2.5910 H   0  0  0  0  0  0  0  0  0  0  0  0
   16.1690   -8.2840   -1.7090 H   0  0  0  0  0  0  0  0  0  0  0  0
   17.2490   -4.4470   -0.4430 H   0  0  0  0  0  0  0  0  0  0  0  0
   16.2430   -3.3460   -3.3070 H   0  0  0  0  0  0  0  0  0  0  0  0
   16.9850   -1.4660   -4.7580 H   0  0  0  0  0  0  0  0  0  0  0  0
   16.5110    0.8820   -4.1280 H   0  0  0  0  0  0  0  0  0  0  0  0
   14.3810    2.3430   -3.7600 H   0  0  0  0  0  0  0  0  0  0  0  0
   13.8970    4.6700   -3.0360 H   0  0  0  0  0  0  0  0  0  0  0  0
   14.3760    5.3830   -0.6890 H   0  0  0  0  0  0  0  0  0  0  0  0
   15.9530    1.4350    0.1560 H   0  0  0  0  0  0  0  0  0  0  0  0
   14.5510   -0.5010   -0.5380 H   0  0  0  0  0  0  0  0  0  0  0  0
   13.6590   -2.1960    3.3360 H   0  0  0  0  0  0  0  0  0  0  0  0
  1  2  1  0  0  0  0
  1 28  1  0  0  0  0
  1 29  1  0  0  0  0
  1 30  1  0  0  0  0
  2  3  1  0  0  0  0
  2 26  1  0  0  0  0
  3  4  1  0  0  0  0
  3  5  2  0  0  0  0
  4 31  1  0  0  0  0
  4 45  1  0  0  0  0
  5  6  1  0  0  0  0
  5 32  1  0  0  0  0
  6  7  1  0  0  0  0
  6 13  1  0  0  0  0
  6 26  1  0  0  0  0
  7  8  2  0  0  0  0
  7 12  1  0  0  0  0
  8  9  1  0  0  0  0
  8 33  1  0  0  0  0
  9 10  2  0  0  0  0
  9 34  1  0  0  0  0
 10 11  1  0  0  0  0
 10 35  1  0  0  0  0
 11 12  2  0  0  0  0
 12 36  1  0  0  0  0
 13 14  2  0  0  0  0
 13 25  1  0  0  0  0
 14 15  1  0  0  0  0
 14 37  1  0  0  0  0
 15 16  2  0  0  0  0
 15 38  1  0  0  0  0
 16 17  1  0  0  0  0
 16 39  1  0  0  0  0
 17 18  1  0  0  0  0
 17 25  2  0  0  0  0
 18 19  2  0  0  0  0
 18 24  1  0  0  0  0
 19 20  1  0  0  0  0
 19 40  1  0  0  0  0
 20 21  2  0  0  0  0
 20 41  1  0  0  0  0
 21 22  1  0  0  0  0
 21 42  1  0  0  0  0
 22 23  1  0  0  0  0
 22 24  2  0  0  0  0
 24 43  1  0  0  0  0
 25 44  1  0  0  0  0
 26 27  2  0  0  0  0
M  CHG  1   5   1
M  END
$$$$
