CAT-13o
 OpenBabel02232411143D
Structure written by MMmdl.
 42 45  0  0  1  0  0  0  0  0999 V2000
   11.5670   -2.4250    1.3780 C   0  0  0  0  0  0  0  0  0  0  0  0
   12.9080   -2.3890    0.7580 N   0  0  0  0  0  0  0  0  0  0  0  0
   14.0970   -2.3470    1.4730 C   0  0  0  0  0  0  0  0  0  0  0  0
   14.2630   -2.4330    2.8220 N   0  0  0  0  0  0  0  0  0  0  0  0
   15.1880   -2.2740    0.5900 N   0  3  0  0  0  0  0  0  0  0  0  0
   14.7370   -2.7010   -0.7950 C   0  0  1  0  0  0  0  0  0  0  0  0
   15.2760   -1.7460   -1.8320 C   0  0  0  0  0  0  0  0  0  0  0  0
   15.8690   -2.1610   -3.0280 C   0  0  0  0  0  0  0  0  0  0  0  0
   16.3230   -1.1910   -3.9310 C   0  0  0  0  0  0  0  0  0  0  0  0
   16.1880    0.1730   -3.6620 C   0  0  0  0  0  0  0  0  0  0  0  0
   15.5770    0.5990   -2.4700 C   0  0  0  0  0  0  0  0  0  0  0  0
   15.3730    2.0290   -2.1420 C   0  0  0  0  0  0  0  0  0  0  0  0
   14.9970    2.9580   -3.1250 C   0  0  0  0  0  0  0  0  0  0  0  0
   14.6870    4.2770   -2.7710 C   0  0  0  0  0  0  0  0  0  0  0  0
   14.7270    4.6850   -1.4350 C   0  0  0  0  0  0  0  0  0  0  0  0
   15.1260    3.7580   -0.4690 C   0  0  0  0  0  0  0  0  0  0  0  0
   15.1160    4.2040    1.1980 Cl  0  0  0  0  0  0  0  0  0  0  0  0
   15.4800    2.4520   -0.8040 C   0  0  0  0  0  0  0  0  0  0  0  0
   15.1150   -0.3740   -1.5730 C   0  0  0  0  0  0  0  0  0  0  0  0
   15.0400   -4.1640   -0.8490 C   0  0  0  0  0  0  0  0  0  0  0  0
   14.1260   -5.0840   -0.5330 N   0  0  0  0  0  0  0  0  0  0  0  0
   14.7690   -6.3190   -0.3350 C   0  0  0  0  0  0  0  0  0  0  0  0
   16.1310   -6.3170   -0.5140 C   0  0  0  0  0  0  0  0  0  0  0  0
   16.7130   -4.7470   -0.9650 S   0  0  0  0  0  0  0  0  0  0  0  0
   13.1730   -2.5420   -0.6890 C   0  0  0  0  0  0  0  0  0  0  0  0
   12.3200   -2.5330   -1.5110 O   0  0  0  0  0  0  0  0  0  0  0  0
   10.9380   -3.2030    0.8640 H   0  0  0  0  0  0  0  0  0  0  0  0
   11.6340   -2.6900    2.4660 H   0  0  0  0  0  0  0  0  0  0  0  0
   11.0890   -1.4140    1.2700 H   0  0  0  0  0  0  0  0  0  0  0  0
   15.2420   -2.3340    3.2150 H   0  0  0  0  0  0  0  0  0  0  0  0
   16.1310   -2.5860    0.9520 H   0  0  0  0  0  0  0  0  0  0  0  0
   15.9750   -3.2210   -3.2660 H   0  0  0  0  0  0  0  0  0  0  0  0
   16.7980   -1.5000   -4.8670 H   0  0  0  0  0  0  0  0  0  0  0  0
   16.5600    0.9030   -4.3890 H   0  0  0  0  0  0  0  0  0  0  0  0
   14.9220    2.6510   -4.1730 H   0  0  0  0  0  0  0  0  0  0  0  0
   14.3850    4.9870   -3.5500 H   0  0  0  0  0  0  0  0  0  0  0  0
   14.4280    5.6980   -1.1540 H   0  0  0  0  0  0  0  0  0  0  0  0
   15.8180    1.7550   -0.0350 H   0  0  0  0  0  0  0  0  0  0  0  0
   14.6180   -0.0710   -0.6550 H   0  0  0  0  0  0  0  0  0  0  0  0
   14.1580   -7.1810   -0.0480 H   0  0  0  0  0  0  0  0  0  0  0  0
   16.8050   -7.1560   -0.4020 H   0  0  0  0  0  0  0  0  0  0  0  0
   13.5470   -2.0400    3.4830 H   0  0  0  0  0  0  0  0  0  0  0  0
  1  2  1  0  0  0  0
  1 27  1  0  0  0  0
  1 28  1  0  0  0  0
  1 29  1  0  0  0  0
  2  3  1  0  0  0  0
  2 25  1  0  0  0  0
  3  4  1  0  0  0  0
  3  5  2  0  0  0  0
  4 30  1  0  0  0  0
  4 42  1  0  0  0  0
  5  6  1  0  0  0  0
  5 31  1  0  0  0  0
  6  7  1  6  0  0  0
  6 20  1  0  0  0  0
  6 25  1  0  0  0  0
  7  8  2  0  0  0  0
  7 19  1  0  0  0  0
  8  9  1  0  0  0  0
  8 32  1  0  0  0  0
  9 10  2  0  0  0  0
  9 33  1  0  0  0  0
 10 11  1  0  0  0  0
 10 34  1  0  0  0  0
 11 12  1  0  0  0  0
 11 19  2  0  0  0  0
 12 13  2  0  0  0  0
 12 18  1  0  0  0  0
 13 14  1  0  0  0  0
 13 35  1  0  0  0  0
 14 15  2  0  0  0  0
 14 36  1  0  0  0  0
 15 16  1  0  0  0  0
 15 37  1  0  0  0  0
 16 17  1  0  0  0  0
 16 18  2  0  0  0  0
 18 38  1  0  0  0  0
 19 39  1  0  0  0  0
 20 21  2  0  0  0  0
 20 24  1  0  0  0  0
 21 22  1  0  0  0  0
 22 23  2  0  0  0  0
 22 40  1  0  0  0  0
 23 24  1  0  0  0  0
 23 41  1  0  0  0  0
 25 26  2  0  0  0  0
M  CHG  1   5   1
M  END
$$$$
