p38a_2t
 OpenBabel02232411163D
Structure written by MMmdl.
 47 50  0  0  0  0  0  0  0  0999 V2000
   36.3720   36.0110   15.8330 C   0  0  0  0  0  0  0  0  0  0  0  0
   34.5040   35.0170   21.3500 C   0  0  0  0  0  0  0  0  0  0  0  0
   35.7030   35.5420   16.9590 C   0  0  0  0  0  0  0  0  0  0  0  0
   34.0750   39.1180   23.9040 C   0  0  0  0  0  0  0  0  0  0  0  0
   34.7480   37.8800   21.5260 C   0  0  0  0  0  0  0  0  0  0  0  0
   35.1990   37.2050   20.3390 C   0  0  0  0  0  0  0  0  0  0  0  0
   37.6580   36.5250   16.0390 C   0  0  0  0  0  0  0  0  0  0  0  0
   38.2870   36.5480   17.2870 C   0  0  0  0  0  0  0  0  0  0  0  0
   37.5800   36.1050   18.4100 C   0  0  0  0  0  0  0  0  0  0  0  0
   34.2640   37.1410   22.6430 C   0  0  0  0  0  0  0  0  0  0  0  0
   34.7760   39.2950   21.6650 C   0  0  0  0  0  0  0  0  0  0  0  0
   35.1180   35.8560   20.2870 C   0  0  0  0  0  0  0  0  0  0  0  0
   36.2860   35.6040   18.2410 C   0  0  0  0  0  0  0  0  0  0  0  0
   34.4940   35.0070   16.8490 F   0  0  0  0  0  0  0  0  0  0  0  0
   35.5480   35.0050   19.2710 O   0  0  0  0  0  0  0  0  0  0  0  0
   34.4520   39.9220   22.8030 N   0  0  0  0  0  0  0  0  0  0  0  0
   34.3350   33.8210   21.2990 O   0  0  0  0  0  0  0  0  0  0  0  0
   34.0950   35.7450   22.5310 N   0  0  0  0  0  0  0  0  0  0  0  0
   33.9490   37.7420   23.8350 N   0  0  0  0  0  0  0  0  0  0  0  0
   33.8640   39.7900   25.0800 N   0  0  0  0  0  0  0  0  0  0  0  0
   35.9100   36.0020   14.8420 H   0  0  0  0  0  0  0  0  0  0  0  0
   35.6100   37.8110   19.5280 H   0  0  0  0  0  0  0  0  0  0  0  0
   39.3050   36.9330   17.3920 H   0  0  0  0  0  0  0  0  0  0  0  0
   38.0350   36.1770   19.4010 H   0  0  0  0  0  0  0  0  0  0  0  0
   35.0660   39.9220   20.8070 H   0  0  0  0  0  0  0  0  0  0  0  0
   33.8790   40.8320   25.0620 H   0  0  0  0  0  0  0  0  0  0  0  0
   38.2960   37.0490   14.9950 F   0  0  0  0  0  0  0  0  0  0  0  0
   33.8040   37.7000   28.3120 C   0  0  0  0  0  0  0  0  0  0  0  0
   34.3530   38.2040   26.9710 C   0  0  0  0  0  0  0  0  0  0  0  0
   33.3700   39.2300   26.3750 C   0  0  0  0  0  0  0  0  0  0  0  0
   31.9560   38.6270   26.2590 C   0  0  0  0  0  0  0  0  0  0  0  0
   31.5180   38.0810   27.6260 C   0  0  0  0  0  0  0  0  0  0  0  0
   32.4770   37.1440   28.1650 O   0  0  0  0  0  0  0  0  0  0  0  0
   33.7720   38.5210   29.0660 H   0  0  0  0  0  0  0  0  0  0  0  0
   34.3870   36.8260   28.6860 H   0  0  0  0  0  0  0  0  0  0  0  0
   34.4800   37.3440   26.2700 H   0  0  0  0  0  0  0  0  0  0  0  0
   35.3490   38.6840   27.1300 H   0  0  0  0  0  0  0  0  0  0  0  0
   33.3240   40.1310   27.0590 H   0  0  0  0  0  0  0  0  0  0  0  0
   31.2360   39.4100   25.9220 H   0  0  0  0  0  0  0  0  0  0  0  0
   31.9490   37.8010   25.5070 H   0  0  0  0  0  0  0  0  0  0  0  0
   31.3740   38.9090   28.3570 H   0  0  0  0  0  0  0  0  0  0  0  0
   30.5990   37.4560   27.5330 H   0  0  0  0  0  0  0  0  0  0  0  0
   33.5310   34.9690   23.6770 C   0  0  0  0  0  0  0  0  0  0  0  0
   32.8500   35.6280   24.3030 H   0  0  0  0  0  0  0  0  0  0  0  0
   32.8970   34.1160   23.2810 H   0  0  0  0  0  0  0  0  0  0  0  0
   34.6150   34.4470   24.5070 C   0  0  0  0  0  0  0  0  0  0  0  0
   35.4860   34.0380   25.1470 N   0  0  0  0  0  0  0  0  0  0  0  0
  1  3  2  0  0  0  0
  1  7  1  0  0  0  0
  1 21  1  0  0  0  0
  2 12  1  0  0  0  0
  2 17  2  0  0  0  0
  2 18  1  0  0  0  0
  3 13  1  0  0  0  0
  3 14  1  0  0  0  0
  4 16  2  0  0  0  0
  4 19  1  0  0  0  0
  4 20  1  0  0  0  0
  5  6  1  0  0  0  0
  5 10  1  0  0  0  0
  5 11  2  0  0  0  0
  6 12  2  0  0  0  0
  6 22  1  0  0  0  0
  7  8  2  0  0  0  0
  7 27  1  0  0  0  0
  8  9  1  0  0  0  0
  8 23  1  0  0  0  0
  9 13  2  0  0  0  0
  9 24  1  0  0  0  0
 10 18  1  0  0  0  0
 10 19  2  0  0  0  0
 11 16  1  0  0  0  0
 11 25  1  0  0  0  0
 12 15  1  0  0  0  0
 13 15  1  0  0  0  0
 18 43  1  0  0  0  0
 20 26  1  0  0  0  0
 20 30  1  0  0  0  0
 28 29  1  0  0  0  0
 28 33  1  0  0  0  0
 28 34  1  0  0  0  0
 28 35  1  0  0  0  0
 29 30  1  0  0  0  0
 29 36  1  0  0  0  0
 29 37  1  0  0  0  0
 30 31  1  0  0  0  0
 30 38  1  0  0  0  0
 31 32  1  0  0  0  0
 31 39  1  0  0  0  0
 31 40  1  0  0  0  0
 32 33  1  0  0  0  0
 32 41  1  0  0  0  0
 32 42  1  0  0  0  0
 43 44  1  0  0  0  0
 43 45  1  0  0  0  0
 43 46  1  0  0  0  0
 46 47  3  0  0  0  0
M  END
$$$$
