33
 OpenBabel02232411163D
Structure written by MMmdl.
 38 40  0  0  0  0  0  0  0  0999 V2000
    3.8750  -50.1790    5.6050 O   0  0  0  0  0  0  0  0  0  0  0  0
    3.1530  -49.4330    6.2960 C   0  0  0  0  0  0  0  0  0  0  0  0
    3.5320  -48.5170    7.0380 O   0  5  0  0  0  0  0  0  0  0  0  0
    1.6450  -49.7410    6.2250 C   0  0  0  0  0  0  0  0  0  0  0  0
   -0.1890  -51.1170    6.2910 C   0  0  0  0  0  0  0  0  0  0  0  0
   -1.0900  -52.1850    6.4390 C   0  0  0  0  0  0  0  0  0  0  0  0
   -2.4410  -51.9050    6.3000 C   0  0  0  0  0  0  0  0  0  0  0  0
   -2.8960  -50.5980    6.0080 C   0  0  0  0  0  0  0  0  0  0  0  0
   -2.0120  -49.5380    5.8590 C   0  0  0  0  0  0  0  0  0  0  0  0
   -0.6360  -49.7760    6.0070 C   0  0  0  0  0  0  0  0  0  0  0  0
    0.5410  -48.9320    5.9810 C   0  0  0  0  0  0  0  0  0  0  0  0
    0.4590  -47.4550    5.8240 C   0  0  0  0  0  0  0  0  0  0  0  0
    0.0130  -46.8430    7.1690 C   0  0  0  0  0  0  0  0  0  0  0  0
   -0.6500  -45.4800    7.0400 C   0  0  0  0  0  0  0  0  0  0  0  0
   -1.9100  -45.5810    6.2900 O   0  0  0  0  0  0  0  0  0  0  0  0
   -3.0790  -45.5400    7.0030 C   0  0  0  0  0  0  0  0  0  0  0  0
   -3.2740  -46.1900    8.2350 C   0  0  0  0  0  0  0  0  0  0  0  0
   -4.5100  -46.0820    8.8690 C   0  0  0  0  0  0  0  0  0  0  0  0
   -5.5130  -45.3180    8.2720 C   0  0  0  0  0  0  0  0  0  0  0  0
   -5.3440  -44.6970    7.0300 C   0  0  0  0  0  0  0  0  0  0  0  0
   -4.1170  -44.8100    6.3830 C   0  0  0  0  0  0  0  0  0  0  0  0
   -0.7480  -53.1950    6.6640 H   0  0  0  0  0  0  0  0  0  0  0  0
   -3.1790  -52.6990    6.4250 H   0  0  0  0  0  0  0  0  0  0  0  0
   -3.9690  -50.4270    5.9020 H   0  0  0  0  0  0  0  0  0  0  0  0
   -2.3880  -48.5370    5.6410 H   0  0  0  0  0  0  0  0  0  0  0  0
   -0.3130  -47.2060    5.0500 H   0  0  0  0  0  0  0  0  0  0  0  0
    1.4310  -47.0130    5.5090 H   0  0  0  0  0  0  0  0  0  0  0  0
    0.8990  -46.7360    7.8380 H   0  0  0  0  0  0  0  0  0  0  0  0
   -0.7180  -47.5410    7.6480 H   0  0  0  0  0  0  0  0  0  0  0  0
   -0.0880  -44.7910    6.3730 H   0  0  0  0  0  0  0  0  0  0  0  0
   -0.8590  -45.0170    8.0290 H   0  0  0  0  0  0  0  0  0  0  0  0
   -2.4920  -46.7920    8.6950 H   0  0  0  0  0  0  0  0  0  0  0  0
   -3.9590  -44.3460    5.4090 H   0  0  0  0  0  0  0  0  0  0  0  0
    1.2100  -51.0700    6.4100 N   0  0  0  0  0  0  0  0  0  0  0  0
    1.7810  -51.8880    6.5930 H   0  0  0  0  0  0  0  0  0  0  0  0
   -6.1630  -44.1360    6.5740 H   0  0  0  0  0  0  0  0  0  0  0  0
   -7.0160  -45.1310    9.1050 Cl  0  0  0  0  0  0  0  0  0  0  0  0
   -4.6910  -46.5910    9.8200 H   0  0  0  0  0  0  0  0  0  0  0  0
  1  2  2  0  0  0  0
  2  3  1  0  0  0  0
  2  4  1  0  0  0  0
  4 11  2  0  0  0  0
  4 34  1  0  0  0  0
  5  6  2  0  0  0  0
  5 10  1  0  0  0  0
  5 34  1  0  0  0  0
  6  7  1  0  0  0  0
  6 22  1  0  0  0  0
  7  8  2  0  0  0  0
  7 23  1  0  0  0  0
  8  9  1  0  0  0  0
  8 24  1  0  0  0  0
  9 10  2  0  0  0  0
  9 25  1  0  0  0  0
 10 11  1  0  0  0  0
 11 12  1  0  0  0  0
 12 26  1  0  0  0  0
 12 27  1  0  0  0  0
 12 13  1  0  0  0  0
 13 14  1  0  0  0  0
 13 28  1  0  0  0  0
 13 29  1  0  0  0  0
 14 15  1  0  0  0  0
 14 30  1  0  0  0  0
 14 31  1  0  0  0  0
 15 16  1  0  0  0  0
 16 17  2  0  0  0  0
 16 21  1  0  0  0  0
 17 18  1  0  0  0  0
 17 32  1  0  0  0  0
 18 19  2  0  0  0  0
 18 38  1  0  0  0  0
 19 20  1  0  0  0  0
 19 37  1  0  0  0  0
 20 21  2  0  0  0  0
 20 36  1  0  0  0  0
 21 33  1  0  0  0  0
 34 35  1  0  0  0  0
M  CHG  1   3  -1
M  END
$$$$
