p38a_2z
 OpenBabel02232411163D
Structure written by MMmdl.
 45 47  0  0  0  0  0  0  0  0999 V2000
   38.2990   36.5770   17.1300 C   0  0  0  0  0  0  0  0  0  0  0  0
   34.4290   35.0560   21.0940 C   0  0  0  0  0  0  0  0  0  0  0  0
   37.5030   36.1160   18.1750 C   0  0  0  0  0  0  0  0  0  0  0  0
   33.7170   39.0460   23.7520 C   0  0  0  0  0  0  0  0  0  0  0  0
   32.7880   38.9390   26.1570 C   0  0  0  0  0  0  0  0  0  0  0  0
   34.5690   37.9220   21.3690 C   0  0  0  0  0  0  0  0  0  0  0  0
   35.0450   37.3060   20.1600 C   0  0  0  0  0  0  0  0  0  0  0  0
   37.6610   36.7540   15.8940 C   0  0  0  0  0  0  0  0  0  0  0  0
   36.3110   36.4710   15.6750 C   0  0  0  0  0  0  0  0  0  0  0  0
   35.5370   35.9940   16.7380 C   0  0  0  0  0  0  0  0  0  0  0  0
   34.0480   37.1180   22.4250 C   0  0  0  0  0  0  0  0  0  0  0  0
   34.6000   39.3260   21.5910 C   0  0  0  0  0  0  0  0  0  0  0  0
   34.9900   35.9580   20.0550 C   0  0  0  0  0  0  0  0  0  0  0  0
   36.1400   35.8070   17.9850 C   0  0  0  0  0  0  0  0  0  0  0  0
   33.4470   34.8920   23.4050 C   0  0  0  0  0  0  0  0  0  0  0  0
   38.0240   35.9620   19.3860 F   0  0  0  0  0  0  0  0  0  0  0  0
   35.4130   35.1620   18.9920 O   0  0  0  0  0  0  0  0  0  0  0  0
   34.2070   39.8970   22.7380 N   0  0  0  0  0  0  0  0  0  0  0  0
   34.3380   33.8510   21.0060 O   0  0  0  0  0  0  0  0  0  0  0  0
   33.9710   35.7240   22.2860 N   0  0  0  0  0  0  0  0  0  0  0  0
   33.6100   37.6760   23.6000 N   0  0  0  0  0  0  0  0  0  0  0  0
   33.2990   39.6400   24.9170 N   0  0  0  0  0  0  0  0  0  0  0  0
   39.3530   36.8260   17.2750 H   0  0  0  0  0  0  0  0  0  0  0  0
   32.6730   40.0280   27.2430 C   0  0  0  0  0  0  0  0  0  0  0  0
   35.4390   37.9500   19.3720 H   0  0  0  0  0  0  0  0  0  0  0  0
   35.8500   36.6300   14.6980 H   0  0  0  0  0  0  0  0  0  0  0  0
   34.4730   35.7850   16.5870 H   0  0  0  0  0  0  0  0  0  0  0  0
   34.9590   39.9980   20.7940 H   0  0  0  0  0  0  0  0  0  0  0  0
   33.9840   35.1430   24.3580 H   0  0  0  0  0  0  0  0  0  0  0  0
   32.3490   35.0790   23.5360 H   0  0  0  0  0  0  0  0  0  0  0  0
   33.6050   33.8030   23.1830 H   0  0  0  0  0  0  0  0  0  0  0  0
   33.4510   40.6680   25.0230 H   0  0  0  0  0  0  0  0  0  0  0  0
   38.3710   37.2550   14.8860 F   0  0  0  0  0  0  0  0  0  0  0  0
   31.3490   38.3920   25.8780 C   0  0  0  0  0  0  0  0  0  0  0  0
   33.7530   37.8460   26.6240 C   0  0  0  0  0  0  0  0  0  0  0  0
   31.3190   37.0920   25.2950 O   0  0  0  0  0  0  0  0  0  0  0  0
   31.9940   37.0340   24.5710 H   0  0  0  0  0  0  0  0  0  0  0  0
   30.8060   38.2450   26.8430 H   0  0  0  0  0  0  0  0  0  0  0  0
   30.7910   39.0930   25.2140 H   0  0  0  0  0  0  0  0  0  0  0  0
   33.4590   37.5030   27.6450 H   0  0  0  0  0  0  0  0  0  0  0  0
   33.7320   36.9610   25.9500 H   0  0  0  0  0  0  0  0  0  0  0  0
   34.7940   38.2380   26.6770 H   0  0  0  0  0  0  0  0  0  0  0  0
   32.2980   39.5900   28.1960 H   0  0  0  0  0  0  0  0  0  0  0  0
   33.6680   40.4890   27.4540 H   0  0  0  0  0  0  0  0  0  0  0  0
   31.9810   40.8340   26.9220 H   0  0  0  0  0  0  0  0  0  0  0  0
  1  3  2  0  0  0  0
  1  8  1  0  0  0  0
  1 23  1  0  0  0  0
  2 13  1  0  0  0  0
  2 19  2  0  0  0  0
  2 20  1  0  0  0  0
  3 14  1  0  0  0  0
  3 16  1  0  0  0  0
  4 18  2  0  0  0  0
  4 21  1  0  0  0  0
  4 22  1  0  0  0  0
  5 22  1  0  0  0  0
  5 24  1  0  0  0  0
  5 34  1  0  0  0  0
  5 35  1  0  0  0  0
  6  7  1  0  0  0  0
  6 11  1  0  0  0  0
  6 12  2  0  0  0  0
  7 13  2  0  0  0  0
  7 25  1  0  0  0  0
  8  9  2  0  0  0  0
  8 33  1  0  0  0  0
  9 10  1  0  0  0  0
  9 26  1  0  0  0  0
 10 14  2  0  0  0  0
 10 27  1  0  0  0  0
 11 20  1  0  0  0  0
 11 21  2  0  0  0  0
 12 18  1  0  0  0  0
 12 28  1  0  0  0  0
 13 17  1  0  0  0  0
 14 17  1  0  0  0  0
 15 20  1  0  0  0  0
 15 29  1  0  0  0  0
 15 30  1  0  0  0  0
 15 31  1  0  0  0  0
 22 32  1  0  0  0  0
 24 43  1  0  0  0  0
 24 44  1  0  0  0  0
 24 45  1  0  0  0  0
 34 36  1  0  0  0  0
 34 38  1  0  0  0  0
 34 39  1  0  0  0  0
 35 40  1  0  0  0  0
 35 41  1  0  0  0  0
 35 42  1  0  0  0  0
 36 37  1  0  0  0  0
M  END
$$$$
