23479
                    3D
 Schrodinger Suite 2022-3.
 49 51  0  0  1  0  0  0  0  0999 V2000
   43.7600   13.9270   16.7110 S   0  0  0  0  0  0  0  0  0  0  0  0
   43.6130   15.2570   15.5830 C   0  0  0  0  0  0  0  0  0  0  0  0
   42.7140   14.9160   14.6060 C   0  0  0  0  0  0  0  0  0  0  0  0
   42.1130   13.6140   14.8040 C   0  0  0  0  0  0  0  0  0  0  0  0
   42.5680   12.9370   15.9040 C   0  0  0  0  0  0  0  0  0  0  0  0
   44.4060   16.5460   15.8180 C   0  0  0  0  0  0  0  0  0  0  0  0
   45.2530   16.4810   16.7360 O   0  0  0  0  0  0  0  0  0  0  0  0
   44.1650   17.5370   15.1290 O   0  5  0  0  0  0  0  0  0  0  0  0
   42.2190   11.6080   16.3630 C   0  0  0  0  0  0  0  0  0  0  0  0
   40.9080   11.1420   16.2040 C   0  0  0  0  0  0  0  0  0  0  0  0
   40.5850    9.7880   16.4440 C   0  0  0  0  0  0  0  0  0  0  0  0
   41.5570    8.9310   16.9790 C   0  0  0  0  0  0  0  0  0  0  0  0
   42.8420    9.4310   17.2330 C   0  0  0  0  0  0  0  0  0  0  0  0
   43.1900   10.7390   16.9130 C   0  0  0  0  0  0  0  0  0  0  0  0
   40.8190   12.9150   13.5900 Br  0  0  0  0  0  0  0  0  0  0  0  0
   42.5190   15.6710   13.4960 O   0  0  0  0  0  0  0  0  0  0  0  0
   41.1600   16.1940   13.3490 C   0  0  0  0  0  0  0  0  0  0  0  0
   41.4150   17.6170   12.7620 C   0  0  0  0  0  0  0  0  0  0  0  0
   40.4120   18.3630   12.7490 O   0  5  0  0  0  0  0  0  0  0  0  0
   42.5400   17.8930   12.3310 O   0  0  0  0  0  0  0  0  0  0  0  0
   39.2260    9.3960   16.1860 N   0  0  0  0  0  0  0  0  0  0  0  0
   38.9300    7.9570   15.9400 C   0  0  0  0  0  0  0  0  0  0  0  0
   37.4090    7.7300   16.1230 C   0  0  0  0  0  0  0  0  0  0  0  0
   37.0720    6.2470   15.8730 C   0  0  0  0  0  0  0  0  0  0  0  0
   37.4900    5.8090   14.5100 N   0  0  0  0  0  0  0  0  0  0  0  0
   38.9480    6.0360   14.2600 C   0  0  0  0  0  0  0  0  0  0  0  0
   39.3750    7.4880   14.5300 C   0  0  0  0  0  0  0  0  0  0  0  0
   40.1050   11.8150   15.8910 H   0  0  0  0  0  0  0  0  0  0  0  0
   41.3430    7.8900   17.2050 H   0  0  0  0  0  0  0  0  0  0  0  0
   43.5790    8.7570   17.6760 H   0  0  0  0  0  0  0  0  0  0  0  0
   44.2150   11.0700   17.0840 H   0  0  0  0  0  0  0  0  0  0  0  0
   40.6180   16.2230   14.3170 H   0  0  0  0  0  0  0  0  0  0  0  0
   40.6330   15.5400   12.6260 H   0  0  0  0  0  0  0  0  0  0  0  0
   38.7750    9.9860   15.4610 H   0  0  0  0  0  0  0  0  0  0  0  0
   39.4560    7.3320   16.7120 H   0  0  0  0  0  0  0  0  0  0  0  0
   36.8190    8.3740   15.4340 H   0  0  0  0  0  0  0  0  0  0  0  0
   37.1170    7.9810   17.1730 H   0  0  0  0  0  0  0  0  0  0  0  0
   35.9790    6.0770   16.0390 H   0  0  0  0  0  0  0  0  0  0  0  0
   37.6210    5.6010   16.6150 H   0  0  0  0  0  0  0  0  0  0  0  0
   39.1970    5.7570   13.2030 H   0  0  0  0  0  0  0  0  0  0  0  0
   39.5080    5.3470   14.9530 H   0  0  0  0  0  0  0  0  0  0  0  0
   40.4910    7.5260   14.4730 H   0  0  0  0  0  0  0  0  0  0  0  0
   38.9540    8.1630   13.7530 H   0  0  0  0  0  0  0  0  0  0  0  0
   36.5900    5.7410   13.4340 C   0  0  0  0  0  0  0  0  0  0  0  0
   37.0160    5.6390   12.2860 O   0  0  0  0  0  0  0  0  0  0  0  0
   35.1150    5.6760   13.7330 C   0  0  0  0  0  0  0  0  0  0  0  0
   34.8870    4.8980   14.5080 H   0  0  0  0  0  0  0  0  0  0  0  0
   34.7400    6.6580   14.1080 H   0  0  0  0  0  0  0  0  0  0  0  0
   34.5410    5.3950   12.8180 H   0  0  0  0  0  0  0  0  0  0  0  0
  1  2  1  0  0  0  0
  1  5  1  0  0  0  0
  2  3  2  0  0  0  0
  2  6  1  0  0  0  0
  3  4  1  0  0  0  0
  3 16  1  0  0  0  0
  4  5  2  0  0  0  0
  4 15  1  0  0  0  0
  5  9  1  0  0  0  0
  6  7  2  0  0  0  0
  6  8  1  0  0  0  0
  9 10  1  0  0  0  0
  9 14  2  0  0  0  0
 10 11  2  0  0  0  0
 10 28  1  0  0  0  0
 11 12  1  0  0  0  0
 11 21  1  0  0  0  0
 12 13  2  0  0  0  0
 12 29  1  0  0  0  0
 13 14  1  0  0  0  0
 13 30  1  0  0  0  0
 14 31  1  0  0  0  0
 16 17  1  0  0  0  0
 17 18  1  0  0  0  0
 17 32  1  0  0  0  0
 17 33  1  0  0  0  0
 18 19  1  0  0  0  0
 18 20  2  0  0  0  0
 21 22  1  0  0  0  0
 21 34  1  0  0  0  0
 22 23  1  0  0  0  0
 22 27  1  0  0  0  0
 22 35  1  0  0  0  0
 23 24  1  0  0  0  0
 23 36  1  0  0  0  0
 23 37  1  0  0  0  0
 24 25  1  0  0  0  0
 24 38  1  0  0  0  0
 24 39  1  0  0  0  0
 25 26  1  0  0  0  0
 25 44  1  0  0  0  0
 26 27  1  0  0  0  0
 26 40  1  0  0  0  0
 26 41  1  0  0  0  0
 27 42  1  0  0  0  0
 27 43  1  0  0  0  0
 44 45  2  0  0  0  0
 44 46  1  0  0  0  0
 46 47  1  0  0  0  0
 46 48  1  0  0  0  0
 46 49  1  0  0  0  0
M  CHG  2   8  -1  19  -1
M  END
$$$$
