p38a_2e
 OpenBabel02232411163D
Structure written by MMmdl.
 46 49  0  0  0  0  0  0  0  0999 V2000
   32.1560   39.6070   27.0420 C   0  0  0  0  0  0  0  0  0  0  0  0
   33.0680   40.3450   28.0300 C   0  0  0  0  0  0  0  0  0  0  0  0
   34.8430   38.7450   27.7620 C   0  0  0  0  0  0  0  0  0  0  0  0
   34.0070   37.8720   26.8270 C   0  0  0  0  0  0  0  0  0  0  0  0
   36.3470   36.3620   15.6590 C   0  0  0  0  0  0  0  0  0  0  0  0
   33.9980   39.4640   28.6920 O   0  0  0  0  0  0  0  0  0  0  0  0
   34.4660   34.9530   21.0640 C   0  0  0  0  0  0  0  0  0  0  0  0
   35.6010   35.8610   16.7270 C   0  0  0  0  0  0  0  0  0  0  0  0
   33.8770   38.9270   23.7670 C   0  0  0  0  0  0  0  0  0  0  0  0
   32.9220   38.6750   26.0800 C   0  0  0  0  0  0  0  0  0  0  0  0
   34.7060   37.8110   21.3810 C   0  0  0  0  0  0  0  0  0  0  0  0
   35.1810   37.1920   20.1740 C   0  0  0  0  0  0  0  0  0  0  0  0
   37.6880   36.6930   15.8830 C   0  0  0  0  0  0  0  0  0  0  0  0
   38.3240   36.5360   17.1190 C   0  0  0  0  0  0  0  0  0  0  0  0
   37.5720   36.0530   18.1920 C   0  0  0  0  0  0  0  0  0  0  0  0
   34.1540   37.0100   22.4240 C   0  0  0  0  0  0  0  0  0  0  0  0
   34.7640   39.2120   21.6130 C   0  0  0  0  0  0  0  0  0  0  0  0
   35.0820   35.8480   20.0470 C   0  0  0  0  0  0  0  0  0  0  0  0
   36.2300   35.7130   17.9690 C   0  0  0  0  0  0  0  0  0  0  0  0
   33.4270   34.8170   23.3610 C   0  0  0  0  0  0  0  0  0  0  0  0
   34.5440   35.6160   16.5920 H   0  0  0  0  0  0  0  0  0  0  0  0
   38.3760   37.2300   14.8750 F   0  0  0  0  0  0  0  0  0  0  0  0
   35.4860   35.0630   18.9740 O   0  0  0  0  0  0  0  0  0  0  0  0
   34.3740   39.7840   22.7630 N   0  0  0  0  0  0  0  0  0  0  0  0
   34.3200   33.7550   20.9500 O   0  0  0  0  0  0  0  0  0  0  0  0
   34.0270   35.6200   22.2590 N   0  0  0  0  0  0  0  0  0  0  0  0
   33.7390   37.5590   23.6110 N   0  0  0  0  0  0  0  0  0  0  0  0
   33.4930   39.4900   24.9590 N   0  0  0  0  0  0  0  0  0  0  0  0
   31.4210   38.9800   27.6050 H   0  0  0  0  0  0  0  0  0  0  0  0
   31.5820   40.3630   26.4500 H   0  0  0  0  0  0  0  0  0  0  0  0
   33.6470   41.1430   27.5120 H   0  0  0  0  0  0  0  0  0  0  0  0
   32.4820   40.7590   28.8820 H   0  0  0  0  0  0  0  0  0  0  0  0
   35.4690   38.1280   28.4460 H   0  0  0  0  0  0  0  0  0  0  0  0
   35.4550   39.4790   27.1900 H   0  0  0  0  0  0  0  0  0  0  0  0
   34.6800   37.3560   26.0980 H   0  0  0  0  0  0  0  0  0  0  0  0
   33.4870   37.0730   27.4160 H   0  0  0  0  0  0  0  0  0  0  0  0
   35.8780   36.5090   14.6850 H   0  0  0  0  0  0  0  0  0  0  0  0
   32.1860   37.9460   25.6290 H   0  0  0  0  0  0  0  0  0  0  0  0
   35.6130   37.8320   19.4010 H   0  0  0  0  0  0  0  0  0  0  0  0
   39.3700   36.8190   17.2600 H   0  0  0  0  0  0  0  0  0  0  0  0
   38.0180   35.9760   19.1840 H   0  0  0  0  0  0  0  0  0  0  0  0
   35.1440   39.8820   20.8240 H   0  0  0  0  0  0  0  0  0  0  0  0
   34.0280   34.9490   24.3020 H   0  0  0  0  0  0  0  0  0  0  0  0
   32.3780   35.1660   23.5610 H   0  0  0  0  0  0  0  0  0  0  0  0
   33.4090   33.7320   23.0860 H   0  0  0  0  0  0  0  0  0  0  0  0
   33.6130   40.5080   25.1130 H   0  0  0  0  0  0  0  0  0  0  0  0
  1  2  1  0  0  0  0
  1 10  1  0  0  0  0
  1 29  1  0  0  0  0
  1 30  1  0  0  0  0
  2  6  1  0  0  0  0
  2 31  1  0  0  0  0
  2 32  1  0  0  0  0
  3  4  1  0  0  0  0
  3  6  1  0  0  0  0
  3 33  1  0  0  0  0
  3 34  1  0  0  0  0
  4 10  1  0  0  0  0
  4 35  1  0  0  0  0
  4 36  1  0  0  0  0
  5  8  2  0  0  0  0
  5 13  1  0  0  0  0
  5 37  1  0  0  0  0
  7 18  1  0  0  0  0
  7 25  2  0  0  0  0
  7 26  1  0  0  0  0
  8 19  1  0  0  0  0
  8 21  1  0  0  0  0
  9 24  2  0  0  0  0
  9 27  1  0  0  0  0
  9 28  1  0  0  0  0
 10 28  1  0  0  0  0
 10 38  1  0  0  0  0
 11 12  1  0  0  0  0
 11 16  1  0  0  0  0
 11 17  2  0  0  0  0
 12 18  2  0  0  0  0
 12 39  1  0  0  0  0
 13 14  2  0  0  0  0
 13 22  1  0  0  0  0
 14 15  1  0  0  0  0
 14 40  1  0  0  0  0
 15 19  2  0  0  0  0
 15 41  1  0  0  0  0
 16 26  1  0  0  0  0
 16 27  2  0  0  0  0
 17 24  1  0  0  0  0
 17 42  1  0  0  0  0
 18 23  1  0  0  0  0
 19 23  1  0  0  0  0
 20 26  1  0  0  0  0
 20 43  1  0  0  0  0
 20 44  1  0  0  0  0
 20 45  1  0  0  0  0
 28 46  1  0  0  0  0
M  END
$$$$
