47
 OpenBabel02232411163D
Structure written by MMmdl.
 43 46  0  0  0  0  0  0  0  0999 V2000
    4.1250  -50.2390    6.3680 O   0  0  0  0  0  0  0  0  0  0  0  0
    3.3230  -49.3760    6.7770 C   0  0  0  0  0  0  0  0  0  0  0  0
    3.5960  -48.3220    7.3600 O   0  5  0  0  0  0  0  0  0  0  0  0
    1.8390  -49.7050    6.5180 C   0  0  0  0  0  0  0  0  0  0  0  0
   -0.0100  -51.0530    6.5150 C   0  0  0  0  0  0  0  0  0  0  0  0
   -0.9560  -52.0700    6.7300 C   0  0  0  0  0  0  0  0  0  0  0  0
   -2.2470  -51.8510    6.2730 C   0  0  0  0  0  0  0  0  0  0  0  0
   -2.5860  -50.6650    5.5820 C   0  0  0  0  0  0  0  0  0  0  0  0
   -1.6470  -49.6720    5.3360 C   0  0  0  0  0  0  0  0  0  0  0  0
   -0.3440  -49.8200    5.8430 C   0  0  0  0  0  0  0  0  0  0  0  0
    0.8290  -48.9740    5.8990 C   0  0  0  0  0  0  0  0  0  0  0  0
    0.8670  -47.5560    5.4470 C   0  0  0  0  0  0  0  0  0  0  0  0
    0.2750  -46.5820    6.4930 C   0  0  0  0  0  0  0  0  0  0  0  0
   -1.2100  -46.8680    6.6870 C   0  0  0  0  0  0  0  0  0  0  0  0
   -1.6510  -46.0260    7.8190 O   0  0  0  0  0  0  0  0  0  0  0  0
   -3.0160  -45.8560    7.8740 C   0  0  0  0  0  0  0  0  0  0  0  0
   -4.9960  -46.1690    9.2390 C   0  0  0  0  0  0  0  0  0  0  0  0
   -3.6530  -46.3500    9.0640 C   0  0  0  0  0  0  0  0  0  0  0  0
   -0.6950  -52.9950    7.2450 H   0  0  0  0  0  0  0  0  0  0  0  0
   -3.0210  -52.6000    6.4430 H   0  0  0  0  0  0  0  0  0  0  0  0
   -3.6130  -50.5320    5.2380 H   0  0  0  0  0  0  0  0  0  0  0  0
   -1.9320  -48.7970    4.7530 H   0  0  0  0  0  0  0  0  0  0  0  0
    0.2680  -47.4520    4.5090 H   0  0  0  0  0  0  0  0  0  0  0  0
    1.9150  -47.2340    5.2310 H   0  0  0  0  0  0  0  0  0  0  0  0
    0.4050  -45.5320    6.1430 H   0  0  0  0  0  0  0  0  0  0  0  0
    0.8020  -46.6930    7.4690 H   0  0  0  0  0  0  0  0  0  0  0  0
   -1.8080  -46.6150    5.7890 H   0  0  0  0  0  0  0  0  0  0  0  0
   -1.4020  -47.9020    7.0550 H   0  0  0  0  0  0  0  0  0  0  0  0
   -3.0470  -46.8580    9.8170 H   0  0  0  0  0  0  0  0  0  0  0  0
   -3.7270  -45.2110    6.8840 C   0  0  0  0  0  0  0  0  0  0  0  0
   -5.5160  -46.5410   10.1270 H   0  0  0  0  0  0  0  0  0  0  0  0
   -5.1280  -45.0240    7.0450 C   0  0  0  0  0  0  0  0  0  0  0  0
   -5.7710  -45.5160    8.2190 C   0  0  0  0  0  0  0  0  0  0  0  0
   -7.1470  -45.4520    8.3810 N   0  0  0  0  0  0  0  0  0  0  0  0
   -7.8780  -44.9580    7.3850 C   0  0  0  0  0  0  0  0  0  0  0  0
   -7.3070  -44.4120    6.1900 C   0  0  0  0  0  0  0  0  0  0  0  0
   -5.9450  -44.4310    6.0310 C   0  0  0  0  0  0  0  0  0  0  0  0
   -8.9700  -44.9890    7.4930 H   0  0  0  0  0  0  0  0  0  0  0  0
   -7.9670  -44.0110    5.4240 H   0  0  0  0  0  0  0  0  0  0  0  0
   -5.4770  -44.0210    5.1320 H   0  0  0  0  0  0  0  0  0  0  0  0
   -3.2650  -44.8450    5.9690 H   0  0  0  0  0  0  0  0  0  0  0  0
    1.3370  -50.9630    6.9010 N   0  0  0  0  0  0  0  0  0  0  0  0
    1.8360  -51.7190    7.3570 H   0  0  0  0  0  0  0  0  0  0  0  0
  1  2  2  0  0  0  0
  2  3  1  0  0  0  0
  2  4  1  0  0  0  0
  4 11  2  0  0  0  0
  4 42  1  0  0  0  0
  5  6  2  0  0  0  0
  5 10  1  0  0  0  0
  5 42  1  0  0  0  0
  6  7  1  0  0  0  0
  6 19  1  0  0  0  0
  7  8  2  0  0  0  0
  7 20  1  0  0  0  0
  8  9  1  0  0  0  0
  8 21  1  0  0  0  0
  9 10  2  0  0  0  0
  9 22  1  0  0  0  0
 10 11  1  0  0  0  0
 11 12  1  0  0  0  0
 12 23  1  0  0  0  0
 12 24  1  0  0  0  0
 12 13  1  0  0  0  0
 13 14  1  0  0  0  0
 13 25  1  0  0  0  0
 13 26  1  0  0  0  0
 14 15  1  0  0  0  0
 14 27  1  0  0  0  0
 14 28  1  0  0  0  0
 15 16  1  0  0  0  0
 16 18  2  0  0  0  0
 16 30  1  0  0  0  0
 17 18  1  0  0  0  0
 17 31  1  0  0  0  0
 17 33  2  0  0  0  0
 18 29  1  0  0  0  0
 30 32  2  0  0  0  0
 30 41  1  0  0  0  0
 32 33  1  0  0  0  0
 32 37  1  0  0  0  0
 33 34  1  0  0  0  0
 34 35  2  0  0  0  0
 35 36  1  0  0  0  0
 35 38  1  0  0  0  0
 36 37  2  0  0  0  0
 36 39  1  0  0  0  0
 37 40  1  0  0  0  0
 42 43  1  0  0  0  0
M  CHG  1   3  -1
M  END
$$$$
