CAT-17e
 OpenBabel02232411143D
Structure written by MMmdl.
 46 49  0  0  1  0  0  0  0  0999 V2000
   10.8630    2.6840   -1.0530 C   0  0  0  0  0  0  0  0  0  0  0  0
   11.9340    3.5330   -0.5540 O   0  0  0  0  0  0  0  0  0  0  0  0
   13.2150    3.1900   -0.8950 C   0  0  0  0  0  0  0  0  0  0  0  0
   14.1950    4.1920   -0.5980 C   0  0  0  0  0  0  0  0  0  0  0  0
   15.4980    3.9940   -0.8420 N   0  0  0  0  0  0  0  0  0  0  0  0
   15.9050    2.8000   -1.3650 C   0  0  0  0  0  0  0  0  0  0  0  0
   15.0030    1.7650   -1.6590 C   0  0  0  0  0  0  0  0  0  0  0  0
   15.4680    0.4230   -2.0650 C   0  0  0  0  0  0  0  0  0  0  0  0
   16.4630    0.1940   -3.0320 C   0  0  0  0  0  0  0  0  0  0  0  0
   16.9020   -1.1090   -3.2880 C   0  0  0  0  0  0  0  0  0  0  0  0
   16.3770   -2.1990   -2.5820 C   0  0  0  0  0  0  0  0  0  0  0  0
   15.3720   -1.9770   -1.6370 C   0  0  0  0  0  0  0  0  0  0  0  0
   14.7970   -3.0750   -0.7730 C   0  0  1  0  0  0  0  0  0  0  0  0
   15.0850   -4.5080   -1.1770 C   0  0  0  0  0  0  0  0  0  0  0  0
   16.2680   -5.2500   -0.5850 C   0  0  0  0  0  0  0  0  0  0  0  0
   14.8660   -5.6230   -0.1600 C   0  0  0  0  0  0  0  0  0  0  0  0
   15.2240   -2.7570    0.6400 N   0  3  0  0  0  0  0  0  0  0  0  0
   14.1350   -2.6950    1.4970 C   0  0  0  0  0  0  0  0  0  0  0  0
   14.2630   -2.6370    2.8550 N   0  0  0  0  0  0  0  0  0  0  0  0
   12.9480   -2.8030    0.7650 N   0  0  0  0  0  0  0  0  0  0  0  0
   11.6220   -2.5010    1.3420 C   0  0  0  0  0  0  0  0  0  0  0  0
   13.2370   -2.9680   -0.6730 C   0  0  0  0  0  0  0  0  0  0  0  0
   12.3780   -3.0300   -1.4920 O   0  0  0  0  0  0  0  0  0  0  0  0
   14.9100   -0.6750   -1.3970 C   0  0  0  0  0  0  0  0  0  0  0  0
   13.6260    1.9810   -1.4490 C   0  0  0  0  0  0  0  0  0  0  0  0
    9.9530    3.2780   -0.7980 H   0  0  0  0  0  0  0  0  0  0  0  0
   10.9540    2.5570   -2.1550 H   0  0  0  0  0  0  0  0  0  0  0  0
   10.8780    1.7040   -0.5280 H   0  0  0  0  0  0  0  0  0  0  0  0
   13.8950    5.1550   -0.1650 H   0  0  0  0  0  0  0  0  0  0  0  0
   16.9850    2.6780   -1.5320 H   0  0  0  0  0  0  0  0  0  0  0  0
   16.8980    1.0300   -3.5860 H   0  0  0  0  0  0  0  0  0  0  0  0
   17.6790   -1.2820   -4.0400 H   0  0  0  0  0  0  0  0  0  0  0  0
   16.7520   -3.2090   -2.7540 H   0  0  0  0  0  0  0  0  0  0  0  0
   14.8180   -4.6950   -2.2310 H   0  0  0  0  0  0  0  0  0  0  0  0
   16.8500   -5.9210   -1.2150 H   0  0  0  0  0  0  0  0  0  0  0  0
   16.9250   -4.7200    0.1080 H   0  0  0  0  0  0  0  0  0  0  0  0
   14.5270   -5.3610    0.8510 H   0  0  0  0  0  0  0  0  0  0  0  0
   14.4200   -6.5660   -0.5000 H   0  0  0  0  0  0  0  0  0  0  0  0
   16.1760   -3.0060    1.0150 H   0  0  0  0  0  0  0  0  0  0  0  0
   13.5390   -2.1480    3.4390 H   0  0  0  0  0  0  0  0  0  0  0  0
   10.8370   -3.0670    0.7730 H   0  0  0  0  0  0  0  0  0  0  0  0
   11.5840   -2.8180    2.4180 H   0  0  0  0  0  0  0  0  0  0  0  0
   11.4310   -1.3980    1.2660 H   0  0  0  0  0  0  0  0  0  0  0  0
   14.1210   -0.5180   -0.6640 H   0  0  0  0  0  0  0  0  0  0  0  0
   12.9130    1.1940   -1.7030 H   0  0  0  0  0  0  0  0  0  0  0  0
   15.2370   -2.5000    3.2490 H   0  0  0  0  0  0  0  0  0  0  0  0
  1  2  1  0  0  0  0
  1 26  1  0  0  0  0
  1 27  1  0  0  0  0
  1 28  1  0  0  0  0
  2  3  1  0  0  0  0
  3  4  2  0  0  0  0
  3 25  1  0  0  0  0
  4  5  1  0  0  0  0
  4 29  1  0  0  0  0
  5  6  2  0  0  0  0
  6  7  1  0  0  0  0
  6 30  1  0  0  0  0
  7  8  1  0  0  0  0
  7 25  2  0  0  0  0
  8  9  2  0  0  0  0
  8 24  1  0  0  0  0
  9 10  1  0  0  0  0
  9 31  1  0  0  0  0
 10 11  2  0  0  0  0
 10 32  1  0  0  0  0
 11 12  1  0  0  0  0
 11 33  1  0  0  0  0
 12 24  2  0  0  0  0
 13 12  1  6  0  0  0
 13 14  1  0  0  0  0
 13 17  1  0  0  0  0
 13 22  1  0  0  0  0
 14 15  1  0  0  0  0
 14 16  1  0  0  0  0
 14 34  1  0  0  0  0
 15 16  1  0  0  0  0
 15 35  1  0  0  0  0
 15 36  1  0  0  0  0
 16 37  1  0  0  0  0
 16 38  1  0  0  0  0
 17 18  2  0  0  0  0
 17 39  1  0  0  0  0
 18 19  1  0  0  0  0
 18 20  1  0  0  0  0
 19 40  1  0  0  0  0
 19 46  1  0  0  0  0
 20 21  1  0  0  0  0
 20 22  1  0  0  0  0
 21 41  1  0  0  0  0
 21 42  1  0  0  0  0
 21 43  1  0  0  0  0
 22 23  2  0  0  0  0
 24 44  1  0  0  0  0
 25 45  1  0  0  0  0
M  CHG  1  17   1
M  END
$$$$
