p38a_2l
 OpenBabel02232411163D
Structure written by MMmdl.
 49 52  0  0  0  0  0  0  0  0999 V2000
   38.2510   36.5300   17.1930 C   0  0  0  0  0  0  0  0  0  0  0  0
   34.4810   35.1470   21.2710 C   0  0  0  0  0  0  0  0  0  0  0  0
   37.4610   36.0880   18.2510 C   0  0  0  0  0  0  0  0  0  0  0  0
   33.8660   39.2500   23.7630 C   0  0  0  0  0  0  0  0  0  0  0  0
   34.5930   38.0160   21.4030 C   0  0  0  0  0  0  0  0  0  0  0  0
   35.0110   37.3520   20.1990 C   0  0  0  0  0  0  0  0  0  0  0  0
   37.6040   36.6940   15.9600 C   0  0  0  0  0  0  0  0  0  0  0  0
   36.2520   36.4130   15.7560 C   0  0  0  0  0  0  0  0  0  0  0  0
   35.4830   35.9590   16.8330 C   0  0  0  0  0  0  0  0  0  0  0  0
   34.1720   37.2620   22.5380 C   0  0  0  0  0  0  0  0  0  0  0  0
   34.5900   39.4310   21.5330 C   0  0  0  0  0  0  0  0  0  0  0  0
   34.9850   36.0010   20.1620 C   0  0  0  0  0  0  0  0  0  0  0  0
   36.0930   35.7870   18.0790 C   0  0  0  0  0  0  0  0  0  0  0  0
   37.9930   35.9440   19.4580 F   0  0  0  0  0  0  0  0  0  0  0  0
   35.3680   35.1730   19.1080 O   0  0  0  0  0  0  0  0  0  0  0  0
   34.2520   40.0570   22.6670 N   0  0  0  0  0  0  0  0  0  0  0  0
   34.3650   33.9410   21.2250 O   0  0  0  0  0  0  0  0  0  0  0  0
   34.1370   35.8570   22.4750 N   0  0  0  0  0  0  0  0  0  0  0  0
   33.8110   37.8730   23.7160 N   0  0  0  0  0  0  0  0  0  0  0  0
   33.5280   39.9360   24.9030 N   0  0  0  0  0  0  0  0  0  0  0  0
   39.3090   36.7740   17.3240 H   0  0  0  0  0  0  0  0  0  0  0  0
   35.3440   37.9650   19.3590 H   0  0  0  0  0  0  0  0  0  0  0  0
   35.7840   36.5570   14.7800 H   0  0  0  0  0  0  0  0  0  0  0  0
   34.4160   35.7560   16.6930 H   0  0  0  0  0  0  0  0  0  0  0  0
   34.8680   40.0610   20.6730 H   0  0  0  0  0  0  0  0  0  0  0  0
   33.6480   40.9690   24.9160 H   0  0  0  0  0  0  0  0  0  0  0  0
   38.3100   37.1770   14.9400 F   0  0  0  0  0  0  0  0  0  0  0  0
   33.5020   38.0230   28.2450 C   0  0  0  0  0  0  0  0  0  0  0  0
   34.0730   38.5050   26.9060 C   0  0  0  0  0  0  0  0  0  0  0  0
   33.0260   39.3850   26.1950 C   0  0  0  0  0  0  0  0  0  0  0  0
   31.6970   38.6200   26.0390 C   0  0  0  0  0  0  0  0  0  0  0  0
   31.2310   38.1250   27.4150 C   0  0  0  0  0  0  0  0  0  0  0  0
   32.2440   37.3320   28.0750 O   0  0  0  0  0  0  0  0  0  0  0  0
   33.3530   38.8770   28.9470 H   0  0  0  0  0  0  0  0  0  0  0  0
   34.1460   37.2330   28.6970 H   0  0  0  0  0  0  0  0  0  0  0  0
   34.3330   37.6240   26.2700 H   0  0  0  0  0  0  0  0  0  0  0  0
   35.0040   39.0940   27.0890 H   0  0  0  0  0  0  0  0  0  0  0  0
   32.8390   40.3060   26.8280 H   0  0  0  0  0  0  0  0  0  0  0  0
   30.9200   39.2870   25.5990 H   0  0  0  0  0  0  0  0  0  0  0  0
   31.8380   37.7430   25.3610 H   0  0  0  0  0  0  0  0  0  0  0  0
   30.9560   38.9760   28.0780 H   0  0  0  0  0  0  0  0  0  0  0  0
   30.3920   37.3970   27.3170 H   0  0  0  0  0  0  0  0  0  0  0  0
   33.5980   35.0640   23.6340 C   0  0  0  0  0  0  0  0  0  0  0  0
   34.0860   34.0510   23.6170 H   0  0  0  0  0  0  0  0  0  0  0  0
   33.8800   35.5850   24.5920 H   0  0  0  0  0  0  0  0  0  0  0  0
   32.0810   34.9180   23.5510 C   0  0  0  0  0  0  0  0  0  0  0  0
   31.5790   35.9130   23.5820 H   0  0  0  0  0  0  0  0  0  0  0  0
   31.7650   34.3890   22.6250 H   0  0  0  0  0  0  0  0  0  0  0  0
   31.7240   34.3300   24.4310 H   0  0  0  0  0  0  0  0  0  0  0  0
  1  3  2  0  0  0  0
  1  7  1  0  0  0  0
  1 21  1  0  0  0  0
  2 12  1  0  0  0  0
  2 17  2  0  0  0  0
  2 18  1  0  0  0  0
  3 13  1  0  0  0  0
  3 14  1  0  0  0  0
  4 16  2  0  0  0  0
  4 19  1  0  0  0  0
  4 20  1  0  0  0  0
  5  6  1  0  0  0  0
  5 10  1  0  0  0  0
  5 11  2  0  0  0  0
  6 12  2  0  0  0  0
  6 22  1  0  0  0  0
  7  8  2  0  0  0  0
  7 27  1  0  0  0  0
  8  9  1  0  0  0  0
  8 23  1  0  0  0  0
  9 13  2  0  0  0  0
  9 24  1  0  0  0  0
 10 18  1  0  0  0  0
 10 19  2  0  0  0  0
 11 16  1  0  0  0  0
 11 25  1  0  0  0  0
 12 15  1  0  0  0  0
 13 15  1  0  0  0  0
 18 43  1  0  0  0  0
 20 26  1  0  0  0  0
 20 30  1  0  0  0  0
 28 29  1  0  0  0  0
 28 33  1  0  0  0  0
 28 34  1  0  0  0  0
 28 35  1  0  0  0  0
 29 30  1  0  0  0  0
 29 36  1  0  0  0  0
 29 37  1  0  0  0  0
 30 31  1  0  0  0  0
 30 38  1  0  0  0  0
 31 32  1  0  0  0  0
 31 39  1  0  0  0  0
 31 40  1  0  0  0  0
 32 33  1  0  0  0  0
 32 41  1  0  0  0  0
 32 42  1  0  0  0  0
 43 44  1  0  0  0  0
 43 45  1  0  0  0  0
 43 46  1  0  0  0  0
 46 47  1  0  0  0  0
 46 48  1  0  0  0  0
 46 49  1  0  0  0  0
M  END
$$$$
