CAT-17f
 OpenBabel02232411143D
Structure written by MMmdl.
 43 46  0  0  1  0  0  0  0  0999 V2000
   11.8860   -2.2400    0.9420 C   0  0  0  0  0  0  0  0  0  0  0  0
   13.2930   -2.1460    0.5000 N   0  0  0  0  0  0  0  0  0  0  0  0
   14.3740   -2.0820    1.3680 C   0  0  0  0  0  0  0  0  0  0  0  0
   14.3660   -2.3000    2.7100 N   0  0  0  0  0  0  0  0  0  0  0  0
   15.5620   -1.8250    0.6510 N   0  3  0  0  0  0  0  0  0  0  0  0
   15.3330   -2.1710   -0.8060 C   0  0  1  0  0  0  0  0  0  0  0  0
   15.8600   -1.1070   -1.7440 C   0  0  0  0  0  0  0  0  0  0  0  0
   16.7890   -1.4130   -2.7480 C   0  0  0  0  0  0  0  0  0  0  0  0
   17.0980   -0.4590   -3.7210 C   0  0  0  0  0  0  0  0  0  0  0  0
   16.5440    0.8220   -3.6620 C   0  0  0  0  0  0  0  0  0  0  0  0
   15.7080    1.1690   -2.5900 C   0  0  0  0  0  0  0  0  0  0  0  0
   15.2160    2.5420   -2.3850 C   0  0  0  0  0  0  0  0  0  0  0  0
   14.5980    3.2990   -3.4030 C   0  0  0  0  0  0  0  0  0  0  0  0
   14.0660    4.5260   -3.1680 N   0  0  0  0  0  0  0  0  0  0  0  0
   14.1200    5.0420   -1.9150 C   0  0  0  0  0  0  0  0  0  0  0  0
   14.7550    4.3590   -0.8510 C   0  0  0  0  0  0  0  0  0  0  0  0
   14.8060    4.8770    0.4790 C   0  0  0  0  0  0  0  0  0  0  0  0
   14.8540    5.2740    1.5650 N   0  0  0  0  0  0  0  0  0  0  0  0
   15.3270    3.1050   -1.1050 C   0  0  0  0  0  0  0  0  0  0  0  0
   15.3370    0.1880   -1.6560 C   0  0  0  0  0  0  0  0  0  0  0  0
   15.9350   -3.5430   -1.0140 C   0  0  0  0  0  0  0  0  0  0  0  0
   15.1190   -4.8280   -0.9670 C   0  0  0  0  0  0  0  0  0  0  0  0
   15.6850   -4.3340   -2.2800 C   0  0  0  0  0  0  0  0  0  0  0  0
   13.7710   -2.1960   -0.9020 C   0  0  0  0  0  0  0  0  0  0  0  0
   13.0180   -2.2250   -1.8200 O   0  0  0  0  0  0  0  0  0  0  0  0
   11.8240   -2.6260    1.9950 H   0  0  0  0  0  0  0  0  0  0  0  0
   11.4070   -1.2250    0.8900 H   0  0  0  0  0  0  0  0  0  0  0  0
   11.3360   -2.9540    0.2710 H   0  0  0  0  0  0  0  0  0  0  0  0
   13.5650   -2.0100    3.3190 H   0  0  0  0  0  0  0  0  0  0  0  0
   16.4390   -2.2430    1.0750 H   0  0  0  0  0  0  0  0  0  0  0  0
   17.2730   -2.3890   -2.7870 H   0  0  0  0  0  0  0  0  0  0  0  0
   17.7820   -0.7310   -4.5320 H   0  0  0  0  0  0  0  0  0  0  0  0
   16.7670    1.5460   -4.4480 H   0  0  0  0  0  0  0  0  0  0  0  0
   14.5130    2.9040   -4.4290 H   0  0  0  0  0  0  0  0  0  0  0  0
   13.6310    6.0180   -1.7670 H   0  0  0  0  0  0  0  0  0  0  0  0
   15.8450    2.5580   -0.3110 H   0  0  0  0  0  0  0  0  0  0  0  0
   14.6380    0.4300   -0.8570 H   0  0  0  0  0  0  0  0  0  0  0  0
   16.9550   -3.5940   -0.5860 H   0  0  0  0  0  0  0  0  0  0  0  0
   15.5820   -5.6960   -0.4770 H   0  0  0  0  0  0  0  0  0  0  0  0
   14.0380   -4.7920   -0.8000 H   0  0  0  0  0  0  0  0  0  0  0  0
   14.9980   -3.9530   -3.0450 H   0  0  0  0  0  0  0  0  0  0  0  0
   16.5710   -4.8290   -2.6950 H   0  0  0  0  0  0  0  0  0  0  0  0
   15.2950   -2.2390    3.2220 H   0  0  0  0  0  0  0  0  0  0  0  0
  1  2  1  0  0  0  0
  1 26  1  0  0  0  0
  1 27  1  0  0  0  0
  1 28  1  0  0  0  0
  2  3  1  0  0  0  0
  2 24  1  0  0  0  0
  3  4  1  0  0  0  0
  3  5  2  0  0  0  0
  4 29  1  0  0  0  0
  4 43  1  0  0  0  0
  5  6  1  0  0  0  0
  5 30  1  0  0  0  0
  6  7  1  6  0  0  0
  6 21  1  0  0  0  0
  6 24  1  0  0  0  0
  7  8  2  0  0  0  0
  7 20  1  0  0  0  0
  8  9  1  0  0  0  0
  8 31  1  0  0  0  0
  9 10  2  0  0  0  0
  9 32  1  0  0  0  0
 10 11  1  0  0  0  0
 10 33  1  0  0  0  0
 11 12  1  0  0  0  0
 11 20  2  0  0  0  0
 12 13  2  0  0  0  0
 12 19  1  0  0  0  0
 13 14  1  0  0  0  0
 13 34  1  0  0  0  0
 14 15  2  0  0  0  0
 15 16  1  0  0  0  0
 15 35  1  0  0  0  0
 16 17  1  0  0  0  0
 16 19  2  0  0  0  0
 17 18  3  0  0  0  0
 19 36  1  0  0  0  0
 20 37  1  0  0  0  0
 21 22  1  0  0  0  0
 21 23  1  0  0  0  0
 21 38  1  0  0  0  0
 22 23  1  0  0  0  0
 22 39  1  0  0  0  0
 22 40  1  0  0  0  0
 23 41  1  0  0  0  0
 23 42  1  0  0  0  0
 24 25  2  0  0  0  0
M  CHG  1   5   1
M  END
$$$$
