p38a_2p
 OpenBabel02232411163D
Structure written by MMmdl.
 58 61  0  0  0  0  0  0  0  0999 V2000
   38.2220   36.4990   17.2030 C   0  0  0  0  0  0  0  0  0  0  0  0
   34.6510   35.1220   21.3000 C   0  0  0  0  0  0  0  0  0  0  0  0
   37.4030   36.0600   18.2400 C   0  0  0  0  0  0  0  0  0  0  0  0
   34.0910   39.2070   23.8260 C   0  0  0  0  0  0  0  0  0  0  0  0
   34.6330   37.9900   21.4100 C   0  0  0  0  0  0  0  0  0  0  0  0
   34.9400   37.3370   20.1680 C   0  0  0  0  0  0  0  0  0  0  0  0
   37.6080   36.6720   15.9550 C   0  0  0  0  0  0  0  0  0  0  0  0
   36.2590   36.3990   15.7150 C   0  0  0  0  0  0  0  0  0  0  0  0
   35.4600   35.9480   16.7720 C   0  0  0  0  0  0  0  0  0  0  0  0
   34.4300   37.2280   22.6000 C   0  0  0  0  0  0  0  0  0  0  0  0
   34.5500   39.4050   21.5260 C   0  0  0  0  0  0  0  0  0  0  0  0
   34.9690   35.9850   20.1350 C   0  0  0  0  0  0  0  0  0  0  0  0
   36.0360   35.7740   18.0340 C   0  0  0  0  0  0  0  0  0  0  0  0
   37.9080   35.9070   19.4570 F   0  0  0  0  0  0  0  0  0  0  0  0
   35.2610   35.1760   19.0360 O   0  0  0  0  0  0  0  0  0  0  0  0
   34.2940   40.0200   22.6850 N   0  0  0  0  0  0  0  0  0  0  0  0
   34.5230   33.9180   21.2640 O   0  0  0  0  0  0  0  0  0  0  0  0
   34.5140   35.8230   22.5530 N   0  0  0  0  0  0  0  0  0  0  0  0
   34.1450   37.8280   23.8030 N   0  0  0  0  0  0  0  0  0  0  0  0
   33.8750   39.8960   24.9950 N   0  0  0  0  0  0  0  0  0  0  0  0
   39.2790   36.7330   17.3610 H   0  0  0  0  0  0  0  0  0  0  0  0
   35.1500   37.9560   19.2920 H   0  0  0  0  0  0  0  0  0  0  0  0
   35.8160   36.5470   14.7280 H   0  0  0  0  0  0  0  0  0  0  0  0
   34.3970   35.7480   16.6050 H   0  0  0  0  0  0  0  0  0  0  0  0
   34.6930   40.0400   20.6360 H   0  0  0  0  0  0  0  0  0  0  0  0
   33.8250   40.9360   24.9420 H   0  0  0  0  0  0  0  0  0  0  0  0
   38.3400   37.1590   14.9560 F   0  0  0  0  0  0  0  0  0  0  0  0
   33.6310   37.8740   28.2680 C   0  0  0  0  0  0  0  0  0  0  0  0
   34.2430   38.3090   26.9290 C   0  0  0  0  0  0  0  0  0  0  0  0
   33.3310   39.3650   26.2810 C   0  0  0  0  0  0  0  0  0  0  0  0
   31.8970   38.8170   26.1320 C   0  0  0  0  0  0  0  0  0  0  0  0
   31.3910   38.3600   27.5080 C   0  0  0  0  0  0  0  0  0  0  0  0
   32.2780   37.3910   28.1100 O   0  0  0  0  0  0  0  0  0  0  0  0
   33.6340   38.7180   28.9980 H   0  0  0  0  0  0  0  0  0  0  0  0
   34.1590   36.9820   28.6770 H   0  0  0  0  0  0  0  0  0  0  0  0
   34.3510   37.4230   26.2560 H   0  0  0  0  0  0  0  0  0  0  0  0
   35.2590   38.7390   27.1020 H   0  0  0  0  0  0  0  0  0  0  0  0
   33.3040   40.2780   26.9530 H   0  0  0  0  0  0  0  0  0  0  0  0
   31.2250   39.6110   25.7280 H   0  0  0  0  0  0  0  0  0  0  0  0
   31.8930   37.9540   25.4230 H   0  0  0  0  0  0  0  0  0  0  0  0
   31.2850   39.2270   28.1990 H   0  0  0  0  0  0  0  0  0  0  0  0
   30.4390   37.7880   27.4200 H   0  0  0  0  0  0  0  0  0  0  0  0
   34.5730   35.0200   23.8190 C   0  0  0  0  0  0  0  0  0  0  0  0
   35.1670   34.0910   23.5930 H   0  0  0  0  0  0  0  0  0  0  0  0
   35.1390   35.6180   24.5860 H   0  0  0  0  0  0  0  0  0  0  0  0
   33.1830   34.6460   24.3860 C   0  0  0  0  0  0  0  0  0  0  0  0
   33.1050   35.1060   25.4050 H   0  0  0  0  0  0  0  0  0  0  0  0
   32.3790   35.0870   23.7460 H   0  0  0  0  0  0  0  0  0  0  0  0
   33.0070   33.1260   24.4680 C   0  0  0  0  0  0  0  0  0  0  0  0
   33.9720   32.6600   24.8150 H   0  0  0  0  0  0  0  0  0  0  0  0
   32.8280   32.7290   23.4320 H   0  0  0  0  0  0  0  0  0  0  0  0
   31.7220   32.5820   25.5410 S   0  0  0  0  0  0  0  0  0  0  0  0
   30.4700   33.3310   25.3010 O   0  0  0  0  0  0  0  0  0  0  0  0
   32.1260   32.6850   26.9650 O   0  0  0  0  0  0  0  0  0  0  0  0
   31.4830   30.9130   25.1050 C   0  0  0  0  0  0  0  0  0  0  0  0
   32.4370   30.3250   25.1480 H   0  0  0  0  0  0  0  0  0  0  0  0
   30.7570   30.3890   25.7780 H   0  0  0  0  0  0  0  0  0  0  0  0
   31.0890   30.7940   24.0630 H   0  0  0  0  0  0  0  0  0  0  0  0
  1  3  2  0  0  0  0
  1  7  1  0  0  0  0
  1 21  1  0  0  0  0
  2 12  1  0  0  0  0
  2 17  2  0  0  0  0
  2 18  1  0  0  0  0
  3 13  1  0  0  0  0
  3 14  1  0  0  0  0
  4 16  2  0  0  0  0
  4 19  1  0  0  0  0
  4 20  1  0  0  0  0
  5  6  1  0  0  0  0
  5 10  1  0  0  0  0
  5 11  2  0  0  0  0
  6 12  2  0  0  0  0
  6 22  1  0  0  0  0
  7  8  2  0  0  0  0
  7 27  1  0  0  0  0
  8  9  1  0  0  0  0
  8 23  1  0  0  0  0
  9 13  2  0  0  0  0
  9 24  1  0  0  0  0
 10 18  1  0  0  0  0
 10 19  2  0  0  0  0
 11 16  1  0  0  0  0
 11 25  1  0  0  0  0
 12 15  1  0  0  0  0
 13 15  1  0  0  0  0
 18 43  1  0  0  0  0
 20 26  1  0  0  0  0
 20 30  1  0  0  0  0
 28 29  1  0  0  0  0
 28 33  1  0  0  0  0
 28 34  1  0  0  0  0
 28 35  1  0  0  0  0
 29 30  1  0  0  0  0
 29 36  1  0  0  0  0
 29 37  1  0  0  0  0
 30 31  1  0  0  0  0
 30 38  1  0  0  0  0
 31 32  1  0  0  0  0
 31 39  1  0  0  0  0
 31 40  1  0  0  0  0
 32 33  1  0  0  0  0
 32 41  1  0  0  0  0
 32 42  1  0  0  0  0
 43 44  1  0  0  0  0
 43 45  1  0  0  0  0
 43 46  1  0  0  0  0
 46 47  1  0  0  0  0
 46 48  1  0  0  0  0
 46 49  1  0  0  0  0
 49 50  1  0  0  0  0
 49 51  1  0  0  0  0
 49 52  1  0  0  0  0
 52 53  2  0  0  0  0
 52 54  2  0  0  0  0
 52 55  1  0  0  0  0
 55 56  1  0  0  0  0
 55 57  1  0  0  0  0
 55 58  1  0  0  0  0
M  END
$$$$
