p38a_2aa
 OpenBabel02232411163D
Structure written by MMmdl.
 43 45  0  0  0  0  0  0  0  0999 V2000
   38.3030   36.5700   17.1430 C   0  0  0  0  0  0  0  0  0  0  0  0
   34.5200   35.1090   21.1980 C   0  0  0  0  0  0  0  0  0  0  0  0
   37.5260   36.1140   18.2040 C   0  0  0  0  0  0  0  0  0  0  0  0
   33.7470   39.1930   23.6690 C   0  0  0  0  0  0  0  0  0  0  0  0
   32.7580   39.1120   25.9660 C   0  0  0  0  0  0  0  0  0  0  0  0
   34.5660   37.9920   21.3300 C   0  0  0  0  0  0  0  0  0  0  0  0
   35.0260   37.3310   20.1390 C   0  0  0  0  0  0  0  0  0  0  0  0
   37.6500   36.7200   15.9120 C   0  0  0  0  0  0  0  0  0  0  0  0
   36.3020   36.4130   15.7120 C   0  0  0  0  0  0  0  0  0  0  0  0
   35.5460   35.9430   16.7910 C   0  0  0  0  0  0  0  0  0  0  0  0
   34.1500   37.2210   22.4560 C   0  0  0  0  0  0  0  0  0  0  0  0
   34.5070   39.4060   21.4610 C   0  0  0  0  0  0  0  0  0  0  0  0
   35.0260   35.9790   20.1030 C   0  0  0  0  0  0  0  0  0  0  0  0
   36.1650   35.7840   18.0340 C   0  0  0  0  0  0  0  0  0  0  0  0
   33.6770   35.0420   23.5760 C   0  0  0  0  0  0  0  0  0  0  0  0
   38.0620   35.9870   19.4100 F   0  0  0  0  0  0  0  0  0  0  0  0
   35.4580   35.1540   19.0660 O   0  0  0  0  0  0  0  0  0  0  0  0
   34.1120   40.0180   22.5890 N   0  0  0  0  0  0  0  0  0  0  0  0
   34.4190   33.9030   21.1510 O   0  0  0  0  0  0  0  0  0  0  0  0
   34.1340   35.8180   22.3880 N   0  0  0  0  0  0  0  0  0  0  0  0
   33.7500   37.8160   23.6260 N   0  0  0  0  0  0  0  0  0  0  0  0
   33.4570   39.8260   24.8670 N   0  0  0  0  0  0  0  0  0  0  0  0
   39.3570   36.8340   17.2720 H   0  0  0  0  0  0  0  0  0  0  0  0
   32.6020   40.0660   27.1820 C   0  0  0  0  0  0  0  0  0  0  0  0
   35.3680   37.9470   19.3050 H   0  0  0  0  0  0  0  0  0  0  0  0
   35.8280   36.5490   14.7370 H   0  0  0  0  0  0  0  0  0  0  0  0
   34.4830   35.7180   16.6550 H   0  0  0  0  0  0  0  0  0  0  0  0
   34.7820   40.0480   20.6080 H   0  0  0  0  0  0  0  0  0  0  0  0
   34.3020   35.3050   24.4720 H   0  0  0  0  0  0  0  0  0  0  0  0
   32.6060   35.2870   23.8070 H   0  0  0  0  0  0  0  0  0  0  0  0
   33.7660   33.9420   23.3800 H   0  0  0  0  0  0  0  0  0  0  0  0
   33.2900   40.8480   24.8470 H   0  0  0  0  0  0  0  0  0  0  0  0
   38.3420   37.2190   14.8900 F   0  0  0  0  0  0  0  0  0  0  0  0
   31.3610   38.5740   25.5370 C   0  0  0  0  0  0  0  0  0  0  0  0
   30.7690   39.4170   24.5450 O   0  0  0  0  0  0  0  0  0  0  0  0
   30.2350   40.1430   24.9790 H   0  0  0  0  0  0  0  0  0  0  0  0
   31.4730   37.5960   25.0040 H   0  0  0  0  0  0  0  0  0  0  0  0
   30.6880   38.4620   26.4160 H   0  0  0  0  0  0  0  0  0  0  0  0
   33.8150   40.7710   27.4780 O   0  0  0  0  0  0  0  0  0  0  0  0
   31.7980   40.8100   26.9920 H   0  0  0  0  0  0  0  0  0  0  0  0
   32.4060   39.4680   28.1050 H   0  0  0  0  0  0  0  0  0  0  0  0
   33.8910   41.5180   26.7960 H   0  0  0  0  0  0  0  0  0  0  0  0
   33.3900   38.2280   26.2780 H   0  0  0  0  0  0  0  0  0  0  0  0
  1  3  2  0  0  0  0
  1  8  1  0  0  0  0
  1 23  1  0  0  0  0
  2 13  1  0  0  0  0
  2 19  2  0  0  0  0
  2 20  1  0  0  0  0
  3 14  1  0  0  0  0
  3 16  1  0  0  0  0
  4 18  2  0  0  0  0
  4 21  1  0  0  0  0
  4 22  1  0  0  0  0
  5 22  1  0  0  0  0
  5 24  1  0  0  0  0
  5 34  1  0  0  0  0
  5 43  1  0  0  0  0
  6  7  1  0  0  0  0
  6 11  1  0  0  0  0
  6 12  2  0  0  0  0
  7 13  2  0  0  0  0
  7 25  1  0  0  0  0
  8  9  2  0  0  0  0
  8 33  1  0  0  0  0
  9 10  1  0  0  0  0
  9 26  1  0  0  0  0
 10 14  2  0  0  0  0
 10 27  1  0  0  0  0
 11 20  1  0  0  0  0
 11 21  2  0  0  0  0
 12 18  1  0  0  0  0
 12 28  1  0  0  0  0
 13 17  1  0  0  0  0
 14 17  1  0  0  0  0
 15 20  1  0  0  0  0
 15 29  1  0  0  0  0
 15 30  1  0  0  0  0
 15 31  1  0  0  0  0
 22 32  1  0  0  0  0
 24 39  1  0  0  0  0
 24 40  1  0  0  0  0
 24 41  1  0  0  0  0
 34 35  1  0  0  0  0
 34 37  1  0  0  0  0
 34 38  1  0  0  0  0
 35 36  1  0  0  0  0
 39 42  1  0  0  0  0
M  END
$$$$
