p38a_2o
 OpenBabel02232411163D
Structure written by MMmdl.
 55 58  0  0  0  0  0  0  0  0999 V2000
   38.2870   36.5870   17.1830 C   0  0  0  0  0  0  0  0  0  0  0  0
   34.2890   35.1990   21.1850 C   0  0  0  0  0  0  0  0  0  0  0  0
   37.5220   36.1740   18.2720 C   0  0  0  0  0  0  0  0  0  0  0  0
   33.4600   39.1380   23.8510 C   0  0  0  0  0  0  0  0  0  0  0  0
   34.4200   38.0360   21.4980 C   0  0  0  0  0  0  0  0  0  0  0  0
   34.9890   37.4360   20.3190 C   0  0  0  0  0  0  0  0  0  0  0  0
   37.6070   36.7450   15.9680 C   0  0  0  0  0  0  0  0  0  0  0  0
   36.2420   36.4900   15.8080 C   0  0  0  0  0  0  0  0  0  0  0  0
   35.4980   36.0690   16.9150 C   0  0  0  0  0  0  0  0  0  0  0  0
   33.7480   37.2450   22.4760 C   0  0  0  0  0  0  0  0  0  0  0  0
   34.5220   39.4280   21.7650 C   0  0  0  0  0  0  0  0  0  0  0  0
   34.9420   36.0910   20.1980 C   0  0  0  0  0  0  0  0  0  0  0  0
   36.1440   35.9020   18.1440 C   0  0  0  0  0  0  0  0  0  0  0  0
   38.0870   36.0230   19.4610 F   0  0  0  0  0  0  0  0  0  0  0  0
   35.4630   35.2780   19.1940 O   0  0  0  0  0  0  0  0  0  0  0  0
   34.0830   39.9820   22.9010 N   0  0  0  0  0  0  0  0  0  0  0  0
   34.3010   33.9840   21.1390 O   0  0  0  0  0  0  0  0  0  0  0  0
   33.5830   35.8610   22.2490 N   0  0  0  0  0  0  0  0  0  0  0  0
   33.2570   37.7880   23.6380 N   0  0  0  0  0  0  0  0  0  0  0  0
   33.1270   39.7550   25.0350 N   0  0  0  0  0  0  0  0  0  0  0  0
   39.3530   36.8090   17.2790 H   0  0  0  0  0  0  0  0  0  0  0  0
   35.4450   38.0870   19.5690 H   0  0  0  0  0  0  0  0  0  0  0  0
   35.7500   36.6230   14.8420 H   0  0  0  0  0  0  0  0  0  0  0  0
   34.4250   35.8780   16.8110 H   0  0  0  0  0  0  0  0  0  0  0  0
   34.9740   40.0980   21.0150 H   0  0  0  0  0  0  0  0  0  0  0  0
   33.3370   40.7800   25.1040 H   0  0  0  0  0  0  0  0  0  0  0  0
   38.2920   37.1960   14.9200 F   0  0  0  0  0  0  0  0  0  0  0  0
   33.8410   39.5310   28.0210 C   0  0  0  0  0  0  0  0  0  0  0  0
   32.5270   40.0410   27.4140 C   0  0  0  0  0  0  0  0  0  0  0  0
   32.1740   39.2980   26.1030 C   0  0  0  0  0  0  0  0  0  0  0  0
   32.1720   37.7930   26.4100 C   0  0  0  0  0  0  0  0  0  0  0  0
   33.4860   37.3400   27.0580 C   0  0  0  0  0  0  0  0  0  0  0  0
   33.8050   38.1070   28.2420 O   0  0  0  0  0  0  0  0  0  0  0  0
   33.9830   39.9350   29.0520 H   0  0  0  0  0  0  0  0  0  0  0  0
   34.7010   39.7820   27.3590 H   0  0  0  0  0  0  0  0  0  0  0  0
   32.6030   41.1390   27.2500 H   0  0  0  0  0  0  0  0  0  0  0  0
   31.6900   39.8690   28.1350 H   0  0  0  0  0  0  0  0  0  0  0  0
   31.1410   39.6050   25.7650 H   0  0  0  0  0  0  0  0  0  0  0  0
   31.3180   37.5970   27.1120 H   0  0  0  0  0  0  0  0  0  0  0  0
   31.9540   37.2100   25.4820 H   0  0  0  0  0  0  0  0  0  0  0  0
   33.3890   36.3120   27.4810 H   0  0  0  0  0  0  0  0  0  0  0  0
   34.3350   37.4390   26.3460 H   0  0  0  0  0  0  0  0  0  0  0  0
   32.7560   35.0120   23.1670 C   0  0  0  0  0  0  0  0  0  0  0  0
   31.7600   35.5280   23.3070 H   0  0  0  0  0  0  0  0  0  0  0  0
   32.5580   34.0310   22.6430 H   0  0  0  0  0  0  0  0  0  0  0  0
   33.3550   34.7370   24.5480 C   0  0  0  0  0  0  0  0  0  0  0  0
   33.1120   35.6170   25.2010 H   0  0  0  0  0  0  0  0  0  0  0  0
   32.7450   33.8910   24.9900 H   0  0  0  0  0  0  0  0  0  0  0  0
   35.0780   34.3810   24.6250 S   0  0  0  0  0  0  0  0  0  0  0  0
   35.4600   34.2970   26.0360 O   0  0  0  0  0  0  0  0  0  0  0  0
   35.8040   35.3850   23.8510 O   0  0  0  0  0  0  0  0  0  0  0  0
   35.1920   32.8320   23.8590 C   0  0  0  0  0  0  0  0  0  0  0  0
   34.9580   32.8890   22.7590 H   0  0  0  0  0  0  0  0  0  0  0  0
   36.2030   32.3690   23.9560 H   0  0  0  0  0  0  0  0  0  0  0  0
   34.4630   32.0940   24.2960 H   0  0  0  0  0  0  0  0  0  0  0  0
  1  3  2  0  0  0  0
  1  7  1  0  0  0  0
  1 21  1  0  0  0  0
  2 12  1  0  0  0  0
  2 17  2  0  0  0  0
  2 18  1  0  0  0  0
  3 13  1  0  0  0  0
  3 14  1  0  0  0  0
  4 16  2  0  0  0  0
  4 19  1  0  0  0  0
  4 20  1  0  0  0  0
  5  6  1  0  0  0  0
  5 10  1  0  0  0  0
  5 11  2  0  0  0  0
  6 12  2  0  0  0  0
  6 22  1  0  0  0  0
  7  8  2  0  0  0  0
  7 27  1  0  0  0  0
  8  9  1  0  0  0  0
  8 23  1  0  0  0  0
  9 13  2  0  0  0  0
  9 24  1  0  0  0  0
 10 18  1  0  0  0  0
 10 19  2  0  0  0  0
 11 16  1  0  0  0  0
 11 25  1  0  0  0  0
 12 15  1  0  0  0  0
 13 15  1  0  0  0  0
 18 43  1  0  0  0  0
 20 26  1  0  0  0  0
 20 30  1  0  0  0  0
 28 29  1  0  0  0  0
 28 33  1  0  0  0  0
 28 34  1  0  0  0  0
 28 35  1  0  0  0  0
 29 30  1  0  0  0  0
 29 36  1  0  0  0  0
 29 37  1  0  0  0  0
 30 31  1  0  0  0  0
 30 38  1  0  0  0  0
 31 32  1  0  0  0  0
 31 39  1  0  0  0  0
 31 40  1  0  0  0  0
 32 33  1  0  0  0  0
 32 41  1  0  0  0  0
 32 42  1  0  0  0  0
 43 44  1  0  0  0  0
 43 45  1  0  0  0  0
 43 46  1  0  0  0  0
 46 47  1  0  0  0  0
 46 48  1  0  0  0  0
 46 49  1  0  0  0  0
 49 50  2  0  0  0  0
 49 51  2  0  0  0  0
 49 52  1  0  0  0  0
 52 53  1  0  0  0  0
 52 54  1  0  0  0  0
 52 55  1  0  0  0  0
M  END
$$$$
