23
 OpenBabel02232411163D
Structure written by MMmdl.
 43 46  0  0  0  0  0  0  0  0999 V2000
    3.7480  -49.7620    5.9260 O   0  0  0  0  0  0  0  0  0  0  0  0
    2.9720  -48.9350    6.4420 C   0  0  0  0  0  0  0  0  0  0  0  0
    3.2790  -47.9060    7.0580 O   0  5  0  0  0  0  0  0  0  0  0  0
    1.4920  -49.3250    6.3450 C   0  0  0  0  0  0  0  0  0  0  0  0
    1.1610  -50.9850    6.8220 S   0  0  0  0  0  0  0  0  0  0  0  0
   -0.5520  -50.8260    6.5410 C   0  0  0  0  0  0  0  0  0  0  0  0
   -1.5360  -51.7910    6.7320 C   0  0  0  0  0  0  0  0  0  0  0  0
   -2.8550  -51.4510    6.4320 C   0  0  0  0  0  0  0  0  0  0  0  0
   -3.1660  -50.1680    5.9470 C   0  0  0  0  0  0  0  0  0  0  0  0
   -2.1760  -49.2050    5.7610 C   0  0  0  0  0  0  0  0  0  0  0  0
   -0.8400  -49.5210    6.0620 C   0  0  0  0  0  0  0  0  0  0  0  0
    0.3610  -48.6770    5.9690 C   0  0  0  0  0  0  0  0  0  0  0  0
    0.2680  -47.2620    5.4900 C   0  0  0  0  0  0  0  0  0  0  0  0
    0.2470  -46.2350    6.6340 C   0  0  0  0  0  0  0  0  0  0  0  0
   -0.9160  -46.3880    7.6060 C   0  0  0  0  0  0  0  0  0  0  0  0
   -2.0920  -45.8280    6.9070 O   0  0  0  0  0  0  0  0  0  0  0  0
   -3.2780  -45.8260    7.5800 C   0  0  0  0  0  0  0  0  0  0  0  0
   -5.8140  -45.5920    8.7750 C   0  0  0  0  0  0  0  0  0  0  0  0
   -4.8280  -46.3480    9.3600 C   0  0  0  0  0  0  0  0  0  0  0  0
   -3.5400  -46.4690    8.7760 C   0  0  0  0  0  0  0  0  0  0  0  0
   -1.3050  -52.7900    7.1100 H   0  0  0  0  0  0  0  0  0  0  0  0
   -3.6530  -52.1800    6.5740 H   0  0  0  0  0  0  0  0  0  0  0  0
   -4.2070  -49.9300    5.7170 H   0  0  0  0  0  0  0  0  0  0  0  0
   -2.4610  -48.2190    5.3920 H   0  0  0  0  0  0  0  0  0  0  0  0
   -0.6680  -47.1350    4.8850 H   0  0  0  0  0  0  0  0  0  0  0  0
    1.1390  -47.0220    4.8310 H   0  0  0  0  0  0  0  0  0  0  0  0
    0.2010  -45.2100    6.1960 H   0  0  0  0  0  0  0  0  0  0  0  0
    1.1910  -46.3370    7.2300 H   0  0  0  0  0  0  0  0  0  0  0  0
   -0.7790  -45.7530    8.5080 H   0  0  0  0  0  0  0  0  0  0  0  0
   -1.1500  -47.4480    7.8340 H   0  0  0  0  0  0  0  0  0  0  0  0
   -2.8110  -47.0820    9.2930 H   0  0  0  0  0  0  0  0  0  0  0  0
   -5.5760  -44.9480    7.5210 C   0  0  0  0  0  0  0  0  0  0  0  0
   -4.3020  -45.0610    6.9040 C   0  0  0  0  0  0  0  0  0  0  0  0
   -4.0810  -44.4620    5.6310 C   0  0  0  0  0  0  0  0  0  0  0  0
   -5.0840  -43.7630    5.0030 C   0  0  0  0  0  0  0  0  0  0  0  0
   -6.3620  -43.6540    5.6140 C   0  0  0  0  0  0  0  0  0  0  0  0
   -6.6050  -44.2270    6.8400 C   0  0  0  0  0  0  0  0  0  0  0  0
   -3.1100  -44.5940    5.1510 H   0  0  0  0  0  0  0  0  0  0  0  0
   -4.9170  -43.2960    4.0350 H   0  0  0  0  0  0  0  0  0  0  0  0
   -7.1480  -43.1140    5.0910 H   0  0  0  0  0  0  0  0  0  0  0  0
   -7.5880  -44.1540    7.3020 H   0  0  0  0  0  0  0  0  0  0  0  0
   -5.0280  -46.8790   10.2930 H   0  0  0  0  0  0  0  0  0  0  0  0
   -6.7940  -45.4940    9.2400 H   0  0  0  0  0  0  0  0  0  0  0  0
  1  2  2  0  0  0  0
  2  3  1  0  0  0  0
  2  4  1  0  0  0  0
  4  5  1  0  0  0  0
  4 12  2  0  0  0  0
  5  6  1  0  0  0  0
  6  7  2  0  0  0  0
  6 11  1  0  0  0  0
  7  8  1  0  0  0  0
  7 21  1  0  0  0  0
  8  9  2  0  0  0  0
  8 22  1  0  0  0  0
  9 10  1  0  0  0  0
  9 23  1  0  0  0  0
 10 11  2  0  0  0  0
 10 24  1  0  0  0  0
 11 12  1  0  0  0  0
 12 13  1  0  0  0  0
 13 25  1  0  0  0  0
 13 26  1  0  0  0  0
 13 14  1  0  0  0  0
 14 15  1  0  0  0  0
 14 27  1  0  0  0  0
 14 28  1  0  0  0  0
 15 16  1  0  0  0  0
 15 29  1  0  0  0  0
 15 30  1  0  0  0  0
 16 17  1  0  0  0  0
 17 20  2  0  0  0  0
 17 33  1  0  0  0  0
 18 19  2  0  0  0  0
 18 32  1  0  0  0  0
 18 43  1  0  0  0  0
 19 20  1  0  0  0  0
 19 42  1  0  0  0  0
 20 31  1  0  0  0  0
 32 33  2  0  0  0  0
 32 37  1  0  0  0  0
 33 34  1  0  0  0  0
 34 35  2  0  0  0  0
 34 38  1  0  0  0  0
 35 36  1  0  0  0  0
 35 39  1  0  0  0  0
 36 37  2  0  0  0  0
 36 40  1  0  0  0  0
 37 41  1  0  0  0  0
M  CHG  1   3  -1
M  END
$$$$
