31
 OpenBabel02232411153D
Structure written by MMmdl.
 50 53  0  0  0  0  0  0  0  0999 V2000
    1.6380   28.9100    6.8810 C   0  0  0  0  0  0  0  0  0  0  0  0
   -1.7660   31.5870    8.0720 C   0  0  0  0  0  0  0  0  0  0  0  0
   -0.3880   26.0470    8.8970 C   0  0  0  0  0  0  0  0  0  0  0  0
   -1.0680   25.3250   10.0660 C   0  0  0  0  0  0  0  0  0  0  0  0
   -0.8630   23.8090    9.8340 C   0  0  0  0  0  0  0  0  0  0  0  0
   -1.3890   22.9840   11.0160 C   0  0  0  0  0  0  0  0  0  0  0  0
   -0.7710   23.4420   12.3460 C   0  0  0  0  0  0  0  0  0  0  0  0
   -1.0130   24.9410   12.5800 C   0  0  0  0  0  0  0  0  0  0  0  0
   -0.4690   25.7780   11.4120 C   0  0  0  0  0  0  0  0  0  0  0  0
    3.9380   25.3930    8.2320 C   0  0  0  0  0  0  0  0  0  0  0  0
    4.7790   24.8240    7.2720 C   0  0  0  0  0  0  0  0  0  0  0  0
    5.0610   25.5020    6.0880 C   0  0  0  0  0  0  0  0  0  0  0  0
    4.4390   26.7240    5.8210 C   0  0  0  0  0  0  0  0  0  0  0  0
    0.8800   27.9640    7.5650 N   0  0  0  0  0  0  0  0  0  0  0  0
   -0.2950   28.3190    8.1420 C   0  0  0  0  0  0  0  0  0  0  0  0
   -0.9800   27.4130    8.8580 O   0  0  0  0  0  0  0  0  0  0  0  0
   -0.7750   29.6470    7.9990 C   0  0  0  0  0  0  0  0  0  0  0  0
   -1.8980   30.3240    8.4850 N   0  0  0  0  0  0  0  0  0  0  0  0
   -0.5600   31.7910    7.3120 N   0  0  0  0  0  0  0  0  0  0  0  0
    0.0750   30.5550    7.2430 C   0  0  0  0  0  0  0  0  0  0  0  0
    1.2660   30.2210    6.6440 N   0  0  0  0  0  0  0  0  0  0  0  0
    2.8710   28.4830    6.3990 N   0  0  0  0  0  0  0  0  0  0  0  0
    3.5290   27.2630    6.7560 C   0  0  0  0  0  0  0  0  0  0  0  0
    3.3280   26.6220    7.9920 C   0  0  0  0  0  0  0  0  0  0  0  0
   -2.4440   32.4090    8.2830 H   0  0  0  0  0  0  0  0  0  0  0  0
    0.7090   26.1240    9.0660 H   0  0  0  0  0  0  0  0  0  0  0  0
   -0.6300   25.5960    7.9140 H   0  0  0  0  0  0  0  0  0  0  0  0
   -2.1620   25.5490   10.0780 H   0  0  0  0  0  0  0  0  0  0  0  0
   -1.3990   23.5020    8.9100 H   0  0  0  0  0  0  0  0  0  0  0  0
    0.2290   23.5980    9.7120 H   0  0  0  0  0  0  0  0  0  0  0  0
   -2.4920   23.0990   11.0800 H   0  0  0  0  0  0  0  0  0  0  0  0
   -1.1490   21.9070   10.8540 H   0  0  0  0  0  0  0  0  0  0  0  0
   -1.2200   22.8590   13.1820 H   0  0  0  0  0  0  0  0  0  0  0  0
    0.3270   23.2490   12.3230 H   0  0  0  0  0  0  0  0  0  0  0  0
   -2.1040   25.1270   12.7070 H   0  0  0  0  0  0  0  0  0  0  0  0
   -0.4970   25.2530   13.5170 H   0  0  0  0  0  0  0  0  0  0  0  0
    0.6420   25.6670   11.3910 H   0  0  0  0  0  0  0  0  0  0  0  0
   -0.7130   26.8510   11.5840 H   0  0  0  0  0  0  0  0  0  0  0  0
    3.7460   24.8780    9.1810 H   0  0  0  0  0  0  0  0  0  0  0  0
    5.7640   25.1030    5.3500 H   0  0  0  0  0  0  0  0  0  0  0  0
    4.6570   27.2550    4.8920 H   0  0  0  0  0  0  0  0  0  0  0  0
   -0.2710   32.6620    6.8410 H   0  0  0  0  0  0  0  0  0  0  0  0
    3.4190   29.1140    5.7710 H   0  0  0  0  0  0  0  0  0  0  0  0
    2.6930   27.0570    8.7630 H   0  0  0  0  0  0  0  0  0  0  0  0
    5.3330   23.1790    7.6880 S   0  3  1  0  0  0  0  0  0  0  0  0
    4.9530   22.2920    6.5250 O   0  5  0  0  0  0  0  0  0  0  0  0
    7.1350   23.4350    7.6100 C   0  0  0  0  0  0  0  0  0  0  0  0
    7.4540   24.1220    6.8000 H   0  0  0  0  0  0  0  0  0  0  0  0
    7.3910   23.8380    8.6100 H   0  0  0  0  0  0  0  0  0  0  0  0
    7.6410   22.4530    7.4610 H   0  0  0  0  0  0  0  0  0  0  0  0
  1 14  2  0  0  0  0
  1 21  1  0  0  0  0
  1 22  1  0  0  0  0
  2 18  2  0  0  0  0
  2 19  1  0  0  0  0
  2 25  1  0  0  0  0
  3  4  1  0  0  0  0
  3 16  1  0  0  0  0
  3 26  1  0  0  0  0
  3 27  1  0  0  0  0
  4  5  1  0  0  0  0
  4  9  1  0  0  0  0
  4 28  1  0  0  0  0
  5  6  1  0  0  0  0
  5 29  1  0  0  0  0
  5 30  1  0  0  0  0
  6  7  1  0  0  0  0
  6 31  1  0  0  0  0
  6 32  1  0  0  0  0
  7  8  1  0  0  0  0
  7 33  1  0  0  0  0
  7 34  1  0  0  0  0
  8  9  1  0  0  0  0
  8 35  1  0  0  0  0
  8 36  1  0  0  0  0
  9 37  1  0  0  0  0
  9 38  1  0  0  0  0
 10 11  2  0  0  0  0
 10 24  1  0  0  0  0
 10 39  1  0  0  0  0
 11 12  1  0  0  0  0
 11 45  1  0  0  0  0
 12 13  2  0  0  0  0
 12 40  1  0  0  0  0
 13 23  1  0  0  0  0
 13 41  1  0  0  0  0
 14 15  1  0  0  0  0
 15 16  1  0  0  0  0
 15 17  2  0  0  0  0
 17 18  1  0  0  0  0
 17 20  1  0  0  0  0
 19 20  1  0  0  0  0
 19 42  1  0  0  0  0
 20 21  2  0  0  0  0
 22 23  1  0  0  0  0
 22 43  1  0  0  0  0
 23 24  2  0  0  0  0
 24 44  1  0  0  0  0
 45 46  1  1  0  0  0
 45 47  1  0  0  0  0
 47 48  1  0  0  0  0
 47 49  1  0  0  0  0
 47 50  1  0  0  0  0
M  CHG  2  45   1  46  -1
M  END
$$$$
