p38a_2s
 OpenBabel02232411163D
Structure written by MMmdl.
 54 57  0  0  1  0  0  0  0  0999 V2000
   36.3210   35.9250   15.9720 C   0  0  0  0  0  0  0  0  0  0  0  0
   34.5580   35.0460   21.5810 C   0  0  0  0  0  0  0  0  0  0  0  0
   35.6260   35.4970   17.0990 C   0  0  0  0  0  0  0  0  0  0  0  0
   34.1760   39.1790   24.0600 C   0  0  0  0  0  0  0  0  0  0  0  0
   34.7860   37.9030   21.6900 C   0  0  0  0  0  0  0  0  0  0  0  0
   35.1660   37.2150   20.4870 C   0  0  0  0  0  0  0  0  0  0  0  0
   37.6160   36.4150   16.1850 C   0  0  0  0  0  0  0  0  0  0  0  0
   38.2310   36.4480   17.4400 C   0  0  0  0  0  0  0  0  0  0  0  0
   37.5010   36.0390   18.5620 C   0  0  0  0  0  0  0  0  0  0  0  0
   34.4430   37.1670   22.8590 C   0  0  0  0  0  0  0  0  0  0  0  0
   34.7490   39.3230   21.7900 C   0  0  0  0  0  0  0  0  0  0  0  0
   35.0940   35.8640   20.4620 C   0  0  0  0  0  0  0  0  0  0  0  0
   36.1970   35.5680   18.3860 C   0  0  0  0  0  0  0  0  0  0  0  0
   34.4040   34.9920   16.9860 F   0  0  0  0  0  0  0  0  0  0  0  0
   35.4260   35.0080   19.4140 O   0  0  0  0  0  0  0  0  0  0  0  0
   34.4510   39.9690   22.9260 N   0  0  0  0  0  0  0  0  0  0  0  0
   34.2770   33.8670   21.5110 O   0  0  0  0  0  0  0  0  0  0  0  0
   34.3560   35.7610   22.8150 N   0  0  0  0  0  0  0  0  0  0  0  0
   34.1620   37.7960   24.0460 N   0  0  0  0  0  0  0  0  0  0  0  0
   33.8180   39.8290   25.2170 N   0  0  0  0  0  0  0  0  0  0  0  0
   35.8730   35.9070   14.9740 H   0  0  0  0  0  0  0  0  0  0  0  0
   35.5130   37.8110   19.6380 H   0  0  0  0  0  0  0  0  0  0  0  0
   39.2550   36.8160   17.5500 H   0  0  0  0  0  0  0  0  0  0  0  0
   37.9450   36.1130   19.5570 H   0  0  0  0  0  0  0  0  0  0  0  0
   34.9680   39.9380   20.9010 H   0  0  0  0  0  0  0  0  0  0  0  0
   33.9080   40.8660   25.2560 H   0  0  0  0  0  0  0  0  0  0  0  0
   38.2790   36.9050   15.1390 F   0  0  0  0  0  0  0  0  0  0  0  0
   32.8000   39.3470   28.8660 C   0  0  0  0  0  0  0  0  0  0  0  0
   32.8030   39.9450   27.4540 C   0  0  0  0  0  0  0  0  0  0  0  0
   33.7640   39.1490   26.5480 C   0  0  0  0  0  0  0  0  0  0  0  0
   35.1670   39.0760   27.1870 C   0  0  0  0  0  0  0  0  0  0  0  0
   35.0530   38.5110   28.6090 C   0  0  0  0  0  0  0  0  0  0  0  0
   34.1350   39.2790   29.4190 O   0  0  0  0  0  0  0  0  0  0  0  0
   32.3550   38.3260   28.8690 H   0  0  0  0  0  0  0  0  0  0  0  0
   32.2830   40.0240   29.5850 H   0  0  0  0  0  0  0  0  0  0  0  0
   33.1300   41.0120   27.5090 H   0  0  0  0  0  0  0  0  0  0  0  0
   31.7720   39.9160   27.0290 H   0  0  0  0  0  0  0  0  0  0  0  0
   33.3710   38.1060   26.4110 H   0  0  0  0  0  0  0  0  0  0  0  0
   35.8250   38.4120   26.5780 H   0  0  0  0  0  0  0  0  0  0  0  0
   35.6230   40.0940   27.2180 H   0  0  0  0  0  0  0  0  0  0  0  0
   34.7150   37.4480   28.5870 H   0  0  0  0  0  0  0  0  0  0  0  0
   36.0120   38.6250   29.1650 H   0  0  0  0  0  0  0  0  0  0  0  0
   34.0570   34.9940   24.0660 C   0  0  0  0  0  0  0  0  0  0  0  0
   34.6860   34.0580   24.0620 H   0  0  0  0  0  0  0  0  0  0  0  0
   34.3810   35.6100   24.9560 H   0  0  0  0  0  0  0  0  0  0  0  0
   32.5710   34.5980   24.2540 C   0  0  2  0  0  0  0  0  0  0  0  0
   32.2450   33.4020   23.5380 O   0  0  0  0  0  0  0  0  0  0  0  0
   32.7280   33.3830   22.6710 H   0  0  0  0  0  0  0  0  0  0  0  0
   31.5360   35.6750   23.8500 C   0  0  0  0  0  0  0  0  0  0  0  0
   30.5080   35.2340   23.8380 H   0  0  0  0  0  0  0  0  0  0  0  0
   31.7870   36.1450   22.8790 H   0  0  0  0  0  0  0  0  0  0  0  0
   32.4210   34.3070   25.3290 H   0  0  0  0  0  0  0  0  0  0  0  0
   31.4440   36.6940   24.8490 O   0  0  0  0  0  0  0  0  0  0  0  0
   32.2970   37.1890   24.8860 H   0  0  0  0  0  0  0  0  0  0  0  0
  1  3  2  0  0  0  0
  1  7  1  0  0  0  0
  1 21  1  0  0  0  0
  2 12  1  0  0  0  0
  2 17  2  0  0  0  0
  2 18  1  0  0  0  0
  3 13  1  0  0  0  0
  3 14  1  0  0  0  0
  4 16  2  0  0  0  0
  4 19  1  0  0  0  0
  4 20  1  0  0  0  0
  5  6  1  0  0  0  0
  5 10  1  0  0  0  0
  5 11  2  0  0  0  0
  6 12  2  0  0  0  0
  6 22  1  0  0  0  0
  7  8  2  0  0  0  0
  7 27  1  0  0  0  0
  8  9  1  0  0  0  0
  8 23  1  0  0  0  0
  9 13  2  0  0  0  0
  9 24  1  0  0  0  0
 10 18  1  0  0  0  0
 10 19  2  0  0  0  0
 11 16  1  0  0  0  0
 11 25  1  0  0  0  0
 12 15  1  0  0  0  0
 13 15  1  0  0  0  0
 18 43  1  0  0  0  0
 20 26  1  0  0  0  0
 20 30  1  0  0  0  0
 28 29  1  0  0  0  0
 28 33  1  0  0  0  0
 28 34  1  0  0  0  0
 28 35  1  0  0  0  0
 29 30  1  0  0  0  0
 29 36  1  0  0  0  0
 29 37  1  0  0  0  0
 30 31  1  0  0  0  0
 30 38  1  0  0  0  0
 31 32  1  0  0  0  0
 31 39  1  0  0  0  0
 31 40  1  0  0  0  0
 32 33  1  0  0  0  0
 32 41  1  0  0  0  0
 32 42  1  0  0  0  0
 43 44  1  0  0  0  0
 43 45  1  0  0  0  0
 43 46  1  0  0  0  0
 46 47  1  0  0  0  0
 46 49  1  0  0  0  0
 46 52  1  1  0  0  0
 47 48  1  0  0  0  0
 49 50  1  0  0  0  0
 49 51  1  0  0  0  0
 49 53  1  0  0  0  0
 53 54  1  0  0  0  0
M  END
$$$$
