p38a_3flw
 OpenBabel02232411163D
Structure written by MMmdl.
 49 51  0  0  0  0  0  0  0  0999 V2000
   38.2600   36.5200   17.1930 C   0  0  0  0  0  0  0  0  0  0  0  0
   37.6110   36.6760   15.9600 C   0  0  0  0  0  0  0  0  0  0  0  0
   33.5360   40.3400   27.3610 C   0  0  0  0  0  0  0  0  0  0  0  0
   33.7000   39.7570   28.7650 C   0  0  0  0  0  0  0  0  0  0  0  0
   31.8460   38.9120   26.0220 C   0  0  0  0  0  0  0  0  0  0  0  0
   33.8580   35.1170   23.7310 C   0  0  0  0  0  0  0  0  0  0  0  0
   38.0080   35.9450   19.4610 F   0  0  0  0  0  0  0  0  0  0  0  0
   37.4730   36.0810   18.2540 C   0  0  0  0  0  0  0  0  0  0  0  0
   38.3130   37.1600   14.9380 F   0  0  0  0  0  0  0  0  0  0  0  0
   36.2590   36.3900   15.7590 C   0  0  0  0  0  0  0  0  0  0  0  0
   35.4930   35.9390   16.8400 C   0  0  0  0  0  0  0  0  0  0  0  0
   36.1060   35.7770   18.0850 C   0  0  0  0  0  0  0  0  0  0  0  0
   35.3800   35.1690   19.1200 O   0  0  0  0  0  0  0  0  0  0  0  0
   35.0140   36.0030   20.1750 C   0  0  0  0  0  0  0  0  0  0  0  0
   35.0260   37.3560   20.1970 C   0  0  0  0  0  0  0  0  0  0  0  0
   34.6510   38.0300   21.4100 C   0  0  0  0  0  0  0  0  0  0  0  0
   34.6050   39.4460   21.5230 C   0  0  0  0  0  0  0  0  0  0  0  0
   34.3130   40.0740   22.6710 N   0  0  0  0  0  0  0  0  0  0  0  0
   34.5540   35.1540   21.3050 C   0  0  0  0  0  0  0  0  0  0  0  0
   34.4150   33.9500   21.2730 O   0  0  0  0  0  0  0  0  0  0  0  0
   34.2600   35.8770   22.5150 N   0  0  0  0  0  0  0  0  0  0  0  0
   34.3130   37.2790   22.5740 C   0  0  0  0  0  0  0  0  0  0  0  0
   34.0220   37.8900   23.7710 N   0  0  0  0  0  0  0  0  0  0  0  0
   34.0500   39.2690   23.7990 C   0  0  0  0  0  0  0  0  0  0  0  0
   33.8640   39.9350   24.9910 N   0  0  0  0  0  0  0  0  0  0  0  0
   33.3300   39.2950   26.2420 C   0  0  0  0  0  0  0  0  0  0  0  0
   31.1410   38.3110   27.2420 C   0  0  0  0  0  0  0  0  0  0  0  0
   31.9350   37.3310   27.9350 O   0  0  0  0  0  0  0  0  0  0  0  0
   33.4750   40.7680   29.7730 O   0  0  0  0  0  0  0  0  0  0  0  0
   39.3170   36.7670   17.3210 H   0  0  0  0  0  0  0  0  0  0  0  0
   32.6670   41.0370   27.3460 H   0  0  0  0  0  0  0  0  0  0  0  0
   34.4510   40.9500   27.1340 H   0  0  0  0  0  0  0  0  0  0  0  0
   32.9720   38.9370   28.9670 H   0  0  0  0  0  0  0  0  0  0  0  0
   34.7490   39.4250   28.9470 H   0  0  0  0  0  0  0  0  0  0  0  0
   31.2740   39.8180   25.7000 H   0  0  0  0  0  0  0  0  0  0  0  0
   31.7990   38.1680   25.1860 H   0  0  0  0  0  0  0  0  0  0  0  0
   34.5450   35.3650   24.5850 H   0  0  0  0  0  0  0  0  0  0  0  0
   32.8100   35.3940   24.0260 H   0  0  0  0  0  0  0  0  0  0  0  0
   33.9030   34.0140   23.5320 H   0  0  0  0  0  0  0  0  0  0  0  0
   35.7880   36.5280   14.7830 H   0  0  0  0  0  0  0  0  0  0  0  0
   34.4260   35.7330   16.7040 H   0  0  0  0  0  0  0  0  0  0  0  0
   35.3190   37.9630   19.3380 H   0  0  0  0  0  0  0  0  0  0  0  0
   34.8000   40.0760   20.6390 H   0  0  0  0  0  0  0  0  0  0  0  0
   33.7630   40.9720   24.9630 H   0  0  0  0  0  0  0  0  0  0  0  0
   33.9350   38.3750   26.4540 H   0  0  0  0  0  0  0  0  0  0  0  0
   30.9480   39.0720   28.0310 H   0  0  0  0  0  0  0  0  0  0  0  0
   30.1940   37.8150   26.9250 H   0  0  0  0  0  0  0  0  0  0  0  0
   32.2910   36.6770   27.2840 H   0  0  0  0  0  0  0  0  0  0  0  0
   32.9090   41.5030   29.3930 H   0  0  0  0  0  0  0  0  0  0  0  0
  1  2  2  0  0  0  0
  1  8  1  0  0  0  0
  1 30  1  0  0  0  0
  2  9  1  0  0  0  0
  2 10  1  0  0  0  0
  3  4  1  0  0  0  0
  3 26  1  0  0  0  0
  3 31  1  0  0  0  0
  3 32  1  0  0  0  0
  4 29  1  0  0  0  0
  4 33  1  0  0  0  0
  4 34  1  0  0  0  0
  5 26  1  0  0  0  0
  5 27  1  0  0  0  0
  5 35  1  0  0  0  0
  5 36  1  0  0  0  0
  6 21  1  0  0  0  0
  6 37  1  0  0  0  0
  6 38  1  0  0  0  0
  6 39  1  0  0  0  0
  7  8  1  0  0  0  0
  8 12  2  0  0  0  0
 10 11  2  0  0  0  0
 10 40  1  0  0  0  0
 11 12  1  0  0  0  0
 11 41  1  0  0  0  0
 12 13  1  0  0  0  0
 13 14  1  0  0  0  0
 14 15  2  0  0  0  0
 14 19  1  0  0  0  0
 15 16  1  0  0  0  0
 15 42  1  0  0  0  0
 16 17  2  0  0  0  0
 16 22  1  0  0  0  0
 17 18  1  0  0  0  0
 17 43  1  0  0  0  0
 18 24  2  0  0  0  0
 19 20  2  0  0  0  0
 19 21  1  0  0  0  0
 21 22  1  0  0  0  0
 22 23  2  0  0  0  0
 23 24  1  0  0  0  0
 24 25  1  0  0  0  0
 25 26  1  0  0  0  0
 25 44  1  0  0  0  0
 26 45  1  0  0  0  0
 27 28  1  0  0  0  0
 27 46  1  0  0  0  0
 27 47  1  0  0  0  0
 28 48  1  0  0  0  0
 29 49  1  0  0  0  0
M  END
$$$$
