p38a_3flw
 OpenBabel02232411163D
Structure written by MMmdl.
 49 51  0  0  0  0  0  0  0  0999 V2000
   38.2960   36.5610   17.1210 C   0  0  0  0  0  0  0  0  0  0  0  0
   37.6620   36.7290   15.8820 C   0  0  0  0  0  0  0  0  0  0  0  0
   33.2530   39.8260   27.4140 C   0  0  0  0  0  0  0  0  0  0  0  0
   34.6560   40.3710   27.7230 C   0  0  0  0  0  0  0  0  0  0  0  0
   31.7030   38.4420   25.9450 C   0  0  0  0  0  0  0  0  0  0  0  0
   34.1100   34.8930   23.6380 C   0  0  0  0  0  0  0  0  0  0  0  0
   38.0190   35.9530   19.3780 F   0  0  0  0  0  0  0  0  0  0  0  0
   37.5000   36.0960   18.1650 C   0  0  0  0  0  0  0  0  0  0  0  0
   38.3700   37.2380   14.8770 F   0  0  0  0  0  0  0  0  0  0  0  0
   36.3160   36.4320   15.6580 C   0  0  0  0  0  0  0  0  0  0  0  0
   35.5410   35.9510   16.7190 C   0  0  0  0  0  0  0  0  0  0  0  0
   36.1400   35.7750   17.9700 C   0  0  0  0  0  0  0  0  0  0  0  0
   35.4050   35.1390   18.9770 O   0  0  0  0  0  0  0  0  0  0  0  0
   35.0490   35.9340   20.0650 C   0  0  0  0  0  0  0  0  0  0  0  0
   35.0420   37.2850   20.1330 C   0  0  0  0  0  0  0  0  0  0  0  0
   34.6640   37.9110   21.3710 C   0  0  0  0  0  0  0  0  0  0  0  0
   34.5780   39.3200   21.5330 C   0  0  0  0  0  0  0  0  0  0  0  0
   34.2400   39.9020   22.6940 N   0  0  0  0  0  0  0  0  0  0  0  0
   34.6260   35.0380   21.1730 C   0  0  0  0  0  0  0  0  0  0  0  0
   34.4860   33.8370   21.0960 O   0  0  0  0  0  0  0  0  0  0  0  0
   34.3780   35.7100   22.4210 N   0  0  0  0  0  0  0  0  0  0  0  0
   34.3650   37.1110   22.5150 C   0  0  0  0  0  0  0  0  0  0  0  0
   34.0370   37.6740   23.7240 N   0  0  0  0  0  0  0  0  0  0  0  0
   33.9750   39.0520   23.7860 C   0  0  0  0  0  0  0  0  0  0  0  0
   33.6790   39.6540   24.9900 N   0  0  0  0  0  0  0  0  0  0  0  0
   33.1610   38.9050   26.1770 C   0  0  0  0  0  0  0  0  0  0  0  0
   31.2270   37.4700   27.0340 C   0  0  0  0  0  0  0  0  0  0  0  0
   30.5540   36.3670   26.3860 O   0  0  0  0  0  0  0  0  0  0  0  0
   35.5770   39.3410   28.1160 O   0  0  0  0  0  0  0  0  0  0  0  0
   39.3480   36.8190   17.2690 H   0  0  0  0  0  0  0  0  0  0  0  0
   32.8830   39.2540   28.3020 H   0  0  0  0  0  0  0  0  0  0  0  0
   32.5750   40.7060   27.2760 H   0  0  0  0  0  0  0  0  0  0  0  0
   35.0760   40.9150   26.8450 H   0  0  0  0  0  0  0  0  0  0  0  0
   34.6130   41.0340   28.6210 H   0  0  0  0  0  0  0  0  0  0  0  0
   31.0280   39.3270   25.9010 H   0  0  0  0  0  0  0  0  0  0  0  0
   31.6330   37.9050   24.9660 H   0  0  0  0  0  0  0  0  0  0  0  0
   34.8390   35.1660   24.4480 H   0  0  0  0  0  0  0  0  0  0  0  0
   33.0700   35.0920   24.0110 H   0  0  0  0  0  0  0  0  0  0  0  0
   34.2160   33.8020   23.4020 H   0  0  0  0  0  0  0  0  0  0  0  0
   35.8570   36.5850   14.6800 H   0  0  0  0  0  0  0  0  0  0  0  0
   34.4800   35.7320   16.5640 H   0  0  0  0  0  0  0  0  0  0  0  0
   35.3180   37.9250   19.2930 H   0  0  0  0  0  0  0  0  0  0  0  0
   34.7790   39.9890   20.6780 H   0  0  0  0  0  0  0  0  0  0  0  0
   33.5390   40.6850   25.0180 H   0  0  0  0  0  0  0  0  0  0  0  0
   33.8130   38.0020   26.3280 H   0  0  0  0  0  0  0  0  0  0  0  0
   32.0820   36.9950   27.5710 H   0  0  0  0  0  0  0  0  0  0  0  0
   30.5330   37.9680   27.7450 H   0  0  0  0  0  0  0  0  0  0  0  0
   29.5820   36.3630   26.7200 H   0  0  0  0  0  0  0  0  0  0  0  0
   35.6610   38.7010   27.3720 H   0  0  0  0  0  0  0  0  0  0  0  0
  1  2  2  0  0  0  0
  1  8  1  0  0  0  0
  1 30  1  0  0  0  0
  2  9  1  0  0  0  0
  2 10  1  0  0  0  0
  3  4  1  0  0  0  0
  3 26  1  0  0  0  0
  3 31  1  0  0  0  0
  3 32  1  0  0  0  0
  4 29  1  0  0  0  0
  4 33  1  0  0  0  0
  4 34  1  0  0  0  0
  5 26  1  0  0  0  0
  5 27  1  0  0  0  0
  5 35  1  0  0  0  0
  5 36  1  0  0  0  0
  6 21  1  0  0  0  0
  6 37  1  0  0  0  0
  6 38  1  0  0  0  0
  6 39  1  0  0  0  0
  7  8  1  0  0  0  0
  8 12  2  0  0  0  0
 10 11  2  0  0  0  0
 10 40  1  0  0  0  0
 11 12  1  0  0  0  0
 11 41  1  0  0  0  0
 12 13  1  0  0  0  0
 13 14  1  0  0  0  0
 14 15  2  0  0  0  0
 14 19  1  0  0  0  0
 15 16  1  0  0  0  0
 15 42  1  0  0  0  0
 16 17  2  0  0  0  0
 16 22  1  0  0  0  0
 17 18  1  0  0  0  0
 17 43  1  0  0  0  0
 18 24  2  0  0  0  0
 19 20  2  0  0  0  0
 19 21  1  0  0  0  0
 21 22  1  0  0  0  0
 22 23  2  0  0  0  0
 23 24  1  0  0  0  0
 24 25  1  0  0  0  0
 25 26  1  0  0  0  0
 25 44  1  0  0  0  0
 26 45  1  0  0  0  0
 27 28  1  0  0  0  0
 27 46  1  0  0  0  0
 27 47  1  0  0  0  0
 28 48  1  0  0  0  0
 29 49  1  0  0  0  0
M  END
$$$$
