57
 OpenBabel02232411163D
Structure written by MMmdl.
 47 50  0  0  0  0  0  0  0  0999 V2000
    3.3550  -48.1550    7.0940 O   0  0  0  0  0  0  0  0  0  0  0  0
    2.9600  -49.0940    6.3880 C   0  0  0  0  0  0  0  0  0  0  0  0
    3.6550  -49.8290    5.6610 O   0  5  0  0  0  0  0  0  0  0  0  0
    1.4550  -49.4310    6.3820 C   0  0  0  0  0  0  0  0  0  0  0  0
   -0.4040  -50.7590    6.5900 C   0  0  0  0  0  0  0  0  0  0  0  0
   -1.3330  -51.7870    6.8420 C   0  0  0  0  0  0  0  0  0  0  0  0
   -2.6590  -51.5480    6.5180 C   0  0  0  0  0  0  0  0  0  0  0  0
   -3.0710  -50.3150    5.9570 C   0  0  0  0  0  0  0  0  0  0  0  0
   -2.1640  -49.2940    5.7140 C   0  0  0  0  0  0  0  0  0  0  0  0
   -0.8090  -49.4930    6.0320 C   0  0  0  0  0  0  0  0  0  0  0  0
    0.3760  -48.6740    5.9320 C   0  0  0  0  0  0  0  0  0  0  0  0
    0.3580  -47.2670    5.4480 C   0  0  0  0  0  0  0  0  0  0  0  0
    0.3200  -46.2350    6.5900 C   0  0  0  0  0  0  0  0  0  0  0  0
   -0.8380  -46.4020    7.5660 C   0  0  0  0  0  0  0  0  0  0  0  0
   -2.0300  -45.8600    6.8770 O   0  0  0  0  0  0  0  0  0  0  0  0
   -3.2050  -45.8640    7.5660 C   0  0  0  0  0  0  0  0  0  0  0  0
   -5.7210  -45.6350    8.8070 C   0  0  0  0  0  0  0  0  0  0  0  0
   -4.7260  -46.3960    9.3690 C   0  0  0  0  0  0  0  0  0  0  0  0
   -3.4500  -46.5140    8.7620 C   0  0  0  0  0  0  0  0  0  0  0  0
   -1.0310  -52.7390    7.2790 H   0  0  0  0  0  0  0  0  0  0  0  0
   -3.4100  -52.3190    6.7000 H   0  0  0  0  0  0  0  0  0  0  0  0
   -4.1260  -50.1770    5.7170 H   0  0  0  0  0  0  0  0  0  0  0  0
   -2.5050  -48.3500    5.2870 H   0  0  0  0  0  0  0  0  0  0  0  0
   -0.5550  -47.1180    4.8150 H   0  0  0  0  0  0  0  0  0  0  0  0
    1.2600  -47.0550    4.8240 H   0  0  0  0  0  0  0  0  0  0  0  0
    1.2610  -46.3250    7.1890 H   0  0  0  0  0  0  0  0  0  0  0  0
    0.2620  -45.2130    6.1510 H   0  0  0  0  0  0  0  0  0  0  0  0
   -0.7020  -45.7680    8.4680 H   0  0  0  0  0  0  0  0  0  0  0  0
   -1.0530  -47.4660    7.7980 H   0  0  0  0  0  0  0  0  0  0  0  0
   -2.7120  -47.1320    9.2610 H   0  0  0  0  0  0  0  0  0  0  0  0
   -5.5040  -44.9820    7.5550 C   0  0  0  0  0  0  0  0  0  0  0  0
   -4.2420  -45.0950    6.9120 C   0  0  0  0  0  0  0  0  0  0  0  0
   -4.0450  -44.4870    5.6390 C   0  0  0  0  0  0  0  0  0  0  0  0
   -5.0570  -43.7770    5.0380 C   0  0  0  0  0  0  0  0  0  0  0  0
   -6.3210  -43.6630    5.6770 C   0  0  0  0  0  0  0  0  0  0  0  0
   -6.5420  -44.2460    6.9020 C   0  0  0  0  0  0  0  0  0  0  0  0
   -3.0850  -44.6160    5.1390 H   0  0  0  0  0  0  0  0  0  0  0  0
   -4.9080  -43.3030    4.0710 H   0  0  0  0  0  0  0  0  0  0  0  0
   -7.1120  -43.1080    5.1770 H   0  0  0  0  0  0  0  0  0  0  0  0
   -7.5150  -44.1680    7.3860 H   0  0  0  0  0  0  0  0  0  0  0  0
   -4.9100  -46.9320   10.3040 H   0  0  0  0  0  0  0  0  0  0  0  0
   -6.6920  -45.5360    9.2910 H   0  0  0  0  0  0  0  0  0  0  0  0
    1.7330  -51.7680    7.4580 C   0  0  0  0  0  0  0  0  0  0  0  0
    1.4840  -52.7680    7.0010 H   0  0  0  0  0  0  0  0  0  0  0  0
    2.8410  -51.6220    7.3870 H   0  0  0  0  0  0  0  0  0  0  0  0
    1.4440  -51.8150    8.5460 H   0  0  0  0  0  0  0  0  0  0  0  0
    0.9890  -50.7010    6.7770 N   0  0  0  0  0  0  0  0  0  0  0  0
  1  2  2  0  0  0  0
  2  3  1  0  0  0  0
  2  4  1  0  0  0  0
  4 11  2  0  0  0  0
  4 47  1  0  0  0  0
  5  6  2  0  0  0  0
  5 10  1  0  0  0  0
  5 47  1  0  0  0  0
  6  7  1  0  0  0  0
  6 20  1  0  0  0  0
  7  8  2  0  0  0  0
  7 21  1  0  0  0  0
  8  9  1  0  0  0  0
  8 22  1  0  0  0  0
  9 10  2  0  0  0  0
  9 23  1  0  0  0  0
 10 11  1  0  0  0  0
 11 12  1  0  0  0  0
 12 24  1  0  0  0  0
 12 25  1  0  0  0  0
 12 13  1  0  0  0  0
 13 14  1  0  0  0  0
 13 26  1  0  0  0  0
 13 27  1  0  0  0  0
 14 15  1  0  0  0  0
 14 28  1  0  0  0  0
 14 29  1  0  0  0  0
 15 16  1  0  0  0  0
 16 19  2  0  0  0  0
 16 32  1  0  0  0  0
 17 18  2  0  0  0  0
 17 31  1  0  0  0  0
 17 42  1  0  0  0  0
 18 19  1  0  0  0  0
 18 41  1  0  0  0  0
 19 30  1  0  0  0  0
 31 32  2  0  0  0  0
 31 36  1  0  0  0  0
 32 33  1  0  0  0  0
 33 34  2  0  0  0  0
 33 37  1  0  0  0  0
 34 35  1  0  0  0  0
 34 38  1  0  0  0  0
 35 36  2  0  0  0  0
 35 39  1  0  0  0  0
 36 40  1  0  0  0  0
 43 44  1  0  0  0  0
 43 45  1  0  0  0  0
 43 46  1  0  0  0  0
 43 47  1  0  0  0  0
M  CHG  1   3  -1
M  END
$$$$
