p38a_2n
 OpenBabel02232411163D
Structure written by MMmdl.
 53 56  0  0  0  0  0  0  0  0999 V2000
   38.2850   36.5510   17.0490 C   0  0  0  0  0  0  0  0  0  0  0  0
   34.3950   34.6610   20.7620 C   0  0  0  0  0  0  0  0  0  0  0  0
   37.4520   36.0010   18.0180 C   0  0  0  0  0  0  0  0  0  0  0  0
   33.4910   38.5480   23.5090 C   0  0  0  0  0  0  0  0  0  0  0  0
   34.3660   37.5250   21.1080 C   0  0  0  0  0  0  0  0  0  0  0  0
   34.8630   36.9690   19.8810 C   0  0  0  0  0  0  0  0  0  0  0  0
   37.7060   36.7810   15.7930 C   0  0  0  0  0  0  0  0  0  0  0  0
   36.3780   36.4780   15.4870 C   0  0  0  0  0  0  0  0  0  0  0  0
   35.5710   35.8940   16.4680 C   0  0  0  0  0  0  0  0  0  0  0  0
   33.8650   36.6680   22.1360 C   0  0  0  0  0  0  0  0  0  0  0  0
   34.3850   38.9210   21.3720 C   0  0  0  0  0  0  0  0  0  0  0  0
   34.8920   35.6240   19.7430 C   0  0  0  0  0  0  0  0  0  0  0  0
   36.1190   35.6390   17.7270 C   0  0  0  0  0  0  0  0  0  0  0  0
   37.9020   35.8140   19.2520 F   0  0  0  0  0  0  0  0  0  0  0  0
   35.3680   34.9000   18.6510 O   0  0  0  0  0  0  0  0  0  0  0  0
   33.9740   39.4450   22.5360 N   0  0  0  0  0  0  0  0  0  0  0  0
   34.4510   33.4560   20.6650 O   0  0  0  0  0  0  0  0  0  0  0  0
   33.8390   35.2740   21.9460 N   0  0  0  0  0  0  0  0  0  0  0  0
   33.4360   37.1780   23.3370 N   0  0  0  0  0  0  0  0  0  0  0  0
   33.0040   39.1060   24.6720 N   0  0  0  0  0  0  0  0  0  0  0  0
   39.3210   36.8280   17.2640 H   0  0  0  0  0  0  0  0  0  0  0  0
   35.2150   37.6560   19.1090 H   0  0  0  0  0  0  0  0  0  0  0  0
   35.9570   36.7080   14.5080 H   0  0  0  0  0  0  0  0  0  0  0  0
   34.5250   35.6600   16.2460 H   0  0  0  0  0  0  0  0  0  0  0  0
   34.7570   39.6310   20.6110 H   0  0  0  0  0  0  0  0  0  0  0  0
   33.1910   40.1130   24.8590 H   0  0  0  0  0  0  0  0  0  0  0  0
   38.4480   37.3590   14.8520 F   0  0  0  0  0  0  0  0  0  0  0  0
   31.2150   38.2480   27.9310 C   0  0  0  0  0  0  0  0  0  0  0  0
   31.5380   39.0170   26.6440 C   0  0  0  0  0  0  0  0  0  0  0  0
   32.6450   38.2780   25.8620 C   0  0  0  0  0  0  0  0  0  0  0  0
   33.8760   38.0520   26.7670 C   0  0  0  0  0  0  0  0  0  0  0  0
   33.4500   37.3400   28.0560 C   0  0  0  0  0  0  0  0  0  0  0  0
   32.3960   38.0560   28.7430 O   0  0  0  0  0  0  0  0  0  0  0  0
   30.7640   37.2550   27.6990 H   0  0  0  0  0  0  0  0  0  0  0  0
   30.5570   38.8410   28.6060 H   0  0  0  0  0  0  0  0  0  0  0  0
   31.8810   40.0480   26.8930 H   0  0  0  0  0  0  0  0  0  0  0  0
   30.6210   39.0910   26.0120 H   0  0  0  0  0  0  0  0  0  0  0  0
   32.2500   37.2850   25.5060 H   0  0  0  0  0  0  0  0  0  0  0  0
   34.6280   37.4200   26.2350 H   0  0  0  0  0  0  0  0  0  0  0  0
   34.3540   39.0320   27.0100 H   0  0  0  0  0  0  0  0  0  0  0  0
   33.0990   36.3040   27.8400 H   0  0  0  0  0  0  0  0  0  0  0  0
   34.2700   37.3450   28.8100 H   0  0  0  0  0  0  0  0  0  0  0  0
   33.2540   34.3740   22.9970 C   0  0  0  0  0  0  0  0  0  0  0  0
   33.6260   33.3300   22.8010 H   0  0  0  0  0  0  0  0  0  0  0  0
   33.6230   34.7180   24.0060 H   0  0  0  0  0  0  0  0  0  0  0  0
   31.7190   34.3690   23.0230 C   0  0  0  0  0  0  0  0  0  0  0  0
   31.4040   33.6700   23.8440 H   0  0  0  0  0  0  0  0  0  0  0  0
   31.3460   35.3900   23.3100 H   0  0  0  0  0  0  0  0  0  0  0  0
   31.0120   33.9780   21.7300 C   0  0  0  0  0  0  0  0  0  0  0  0
   29.9060   34.0950   21.8470 H   0  0  0  0  0  0  0  0  0  0  0  0
   31.3740   34.5630   20.8580 H   0  0  0  0  0  0  0  0  0  0  0  0
   31.2480   32.5840   21.4190 O   0  0  0  0  0  0  0  0  0  0  0  0
   30.7040   32.4560   20.5440 H   0  0  0  0  0  0  0  0  0  0  0  0
  1  3  2  0  0  0  0
  1  7  1  0  0  0  0
  1 21  1  0  0  0  0
  2 12  1  0  0  0  0
  2 17  2  0  0  0  0
  2 18  1  0  0  0  0
  3 13  1  0  0  0  0
  3 14  1  0  0  0  0
  4 16  2  0  0  0  0
  4 19  1  0  0  0  0
  4 20  1  0  0  0  0
  5  6  1  0  0  0  0
  5 10  1  0  0  0  0
  5 11  2  0  0  0  0
  6 12  2  0  0  0  0
  6 22  1  0  0  0  0
  7  8  2  0  0  0  0
  7 27  1  0  0  0  0
  8  9  1  0  0  0  0
  8 23  1  0  0  0  0
  9 13  2  0  0  0  0
  9 24  1  0  0  0  0
 10 18  1  0  0  0  0
 10 19  2  0  0  0  0
 11 16  1  0  0  0  0
 11 25  1  0  0  0  0
 12 15  1  0  0  0  0
 13 15  1  0  0  0  0
 18 43  1  0  0  0  0
 20 26  1  0  0  0  0
 20 30  1  0  0  0  0
 28 29  1  0  0  0  0
 28 33  1  0  0  0  0
 28 34  1  0  0  0  0
 28 35  1  0  0  0  0
 29 30  1  0  0  0  0
 29 36  1  0  0  0  0
 29 37  1  0  0  0  0
 30 31  1  0  0  0  0
 30 38  1  0  0  0  0
 31 32  1  0  0  0  0
 31 39  1  0  0  0  0
 31 40  1  0  0  0  0
 32 33  1  0  0  0  0
 32 41  1  0  0  0  0
 32 42  1  0  0  0  0
 43 44  1  0  0  0  0
 43 45  1  0  0  0  0
 43 46  1  0  0  0  0
 46 47  1  0  0  0  0
 46 48  1  0  0  0  0
 46 49  1  0  0  0  0
 49 50  1  0  0  0  0
 49 51  1  0  0  0  0
 49 52  1  0  0  0  0
 52 53  1  0  0  0  0
M  END
$$$$
