23 flip
                    3D
 Schrodinger Suite 2022-3.
 43 46  0  0  1  0  0  0  0  0999 V2000
    3.3470  -48.1330    7.1950 O   0  0  0  0  0  0  0  0  0  0  0  0
    2.9960  -49.0750    6.4730 C   0  0  0  0  0  0  0  0  0  0  0  0
    3.7300  -49.8490    5.8310 O   0  5  0  0  0  0  0  0  0  0  0  0
    1.5050  -49.4180    6.4030 C   0  0  0  0  0  0  0  0  0  0  0  0
    1.1310  -51.0640    6.8920 S   0  0  0  0  0  0  0  0  0  0  0  0
   -0.5730  -50.8660    6.5850 C   0  0  0  0  0  0  0  0  0  0  0  0
   -1.5780  -51.8130    6.7520 C   0  0  0  0  0  0  0  0  0  0  0  0
   -2.8820  -51.4510    6.4160 C   0  0  0  0  0  0  0  0  0  0  0  0
   -3.1590  -50.1610    5.9280 C   0  0  0  0  0  0  0  0  0  0  0  0
   -2.1480  -49.2150    5.7700 C   0  0  0  0  0  0  0  0  0  0  0  0
   -0.8250  -49.5550    6.1000 C   0  0  0  0  0  0  0  0  0  0  0  0
    0.3950  -48.7370    6.0260 C   0  0  0  0  0  0  0  0  0  0  0  0
    0.3500  -47.3110    5.5710 C   0  0  0  0  0  0  0  0  0  0  0  0
    0.2250  -46.3130    6.7370 C   0  0  0  0  0  0  0  0  0  0  0  0
   -1.1190  -46.4020    7.4640 C   0  0  0  0  0  0  0  0  0  0  0  0
   -2.0950  -46.0150    6.4350 O   0  0  0  0  0  0  0  0  0  0  0  0
   -3.3040  -45.4660    6.7550 C   0  0  0  0  0  0  0  0  0  0  0  0
   -5.8020  -44.1910    6.9840 C   0  0  0  0  0  0  0  0  0  0  0  0
   -5.0060  -43.9580    5.8880 C   0  0  0  0  0  0  0  0  0  0  0  0
   -3.7450  -44.5820    5.7770 C   0  0  0  0  0  0  0  0  0  0  0  0
   -1.3740  -52.8150    7.1370 H   0  0  0  0  0  0  0  0  0  0  0  0
   -3.6940  -52.1680    6.5300 H   0  0  0  0  0  0  0  0  0  0  0  0
   -4.1890  -49.9070    5.6750 H   0  0  0  0  0  0  0  0  0  0  0  0
   -2.4050  -48.2200    5.3990 H   0  0  0  0  0  0  0  0  0  0  0  0
   -0.5340  -47.1640    4.8950 H   0  0  0  0  0  0  0  0  0  0  0  0
    1.2710  -47.0560    4.9930 H   0  0  0  0  0  0  0  0  0  0  0  0
    0.3330  -45.2780    6.3360 H   0  0  0  0  0  0  0  0  0  0  0  0
    1.0310  -46.5060    7.4850 H   0  0  0  0  0  0  0  0  0  0  0  0
   -1.1930  -45.6900    8.3090 H   0  0  0  0  0  0  0  0  0  0  0  0
   -1.3620  -47.4520    7.7350 H   0  0  0  0  0  0  0  0  0  0  0  0
   -3.1270  -44.3700    4.9120 H   0  0  0  0  0  0  0  0  0  0  0  0
   -5.3730  -45.0910    8.0030 C   0  0  0  0  0  0  0  0  0  0  0  0
   -4.1320  -45.7860    7.8920 C   0  0  0  0  0  0  0  0  0  0  0  0
   -3.8430  -46.7940    8.8600 C   0  0  0  0  0  0  0  0  0  0  0  0
   -4.6850  -47.0320    9.9180 C   0  0  0  0  0  0  0  0  0  0  0  0
   -5.8780  -46.2740   10.0700 C   0  0  0  0  0  0  0  0  0  0  0  0
   -6.2200  -45.3360    9.1330 C   0  0  0  0  0  0  0  0  0  0  0  0
   -2.9680  -47.4320    8.7460 H   0  0  0  0  0  0  0  0  0  0  0  0
   -4.4740  -47.8230   10.6370 H   0  0  0  0  0  0  0  0  0  0  0  0
   -6.5300  -46.4690   10.9190 H   0  0  0  0  0  0  0  0  0  0  0  0
   -7.1520  -44.7780    9.2170 H   0  0  0  0  0  0  0  0  0  0  0  0
   -5.3340  -43.2850    5.0940 H   0  0  0  0  0  0  0  0  0  0  0  0
   -6.7760  -43.7110    7.0780 H   0  0  0  0  0  0  0  0  0  0  0  0
  1  2  2  0  0  0  0
  2  3  1  0  0  0  0
  2  4  1  0  0  0  0
  4  5  1  0  0  0  0
  4 12  2  0  0  0  0
  5  6  1  0  0  0  0
  6  7  1  0  0  0  0
  6 11  2  0  0  0  0
  7  8  2  0  0  0  0
  7 21  1  0  0  0  0
  8  9  1  0  0  0  0
  8 22  1  0  0  0  0
  9 10  2  0  0  0  0
  9 23  1  0  0  0  0
 10 11  1  0  0  0  0
 10 24  1  0  0  0  0
 11 12  1  0  0  0  0
 12 13  1  0  0  0  0
 13 25  1  0  0  0  0
 13 26  1  0  0  0  0
 13 14  1  0  0  0  0
 14 15  1  0  0  0  0
 14 27  1  0  0  0  0
 14 28  1  0  0  0  0
 15 16  1  0  0  0  0
 15 29  1  0  0  0  0
 15 30  1  0  0  0  0
 16 17  1  0  0  0  0
 17 20  2  0  0  0  0
 17 33  1  0  0  0  0
 18 19  2  0  0  0  0
 18 32  1  0  0  0  0
 18 43  1  0  0  0  0
 19 20  1  0  0  0  0
 19 42  1  0  0  0  0
 20 31  1  0  0  0  0
 32 33  2  0  0  0  0
 32 37  1  0  0  0  0
 33 34  1  0  0  0  0
 34 35  2  0  0  0  0
 34 38  1  0  0  0  0
 35 36  1  0  0  0  0
 35 39  1  0  0  0  0
 36 37  2  0  0  0  0
 36 40  1  0  0  0  0
 37 41  1  0  0  0  0
M  CHG  1   3  -1
M  END
$$$$
