18639-1
 OpenBabel02232411163D
Structure written by MMmdl.
 48 49  0  0  0  0  0  0  0  0999 V2000
   24.4480   10.9220   30.7610 C   0  0  0  0  0  0  0  0  0  0  0  0
   23.1190   11.2630   30.1190 C   0  0  0  0  0  0  0  0  0  0  0  0
   22.0420   11.3220   31.1300 O   0  0  0  0  0  0  0  0  0  0  0  0
   21.4580   10.1730   31.5390 C   0  0  0  0  0  0  0  0  0  0  0  0
   21.9380    8.9840   31.1050 N   0  0  0  0  0  0  0  0  0  0  0  0
   21.2450    7.8410   31.4730 C   0  0  0  0  0  0  0  0  0  0  0  0
   20.1100    7.8730   32.2750 C   0  0  0  0  0  0  0  0  0  0  0  0
   19.6200    9.1240   32.7380 C   0  0  0  0  0  0  0  0  0  0  0  0
   18.4860    9.1610   33.5070 N   0  0  0  0  0  0  0  0  0  0  0  0
   20.3080   10.3250   32.3710 C   0  0  0  0  0  0  0  0  0  0  0  0
   19.8960   11.6230   32.7380 C   0  0  0  0  0  0  0  0  0  0  0  0
   19.6100   12.7170   32.9980 N   0  0  0  0  0  0  0  0  0  0  0  0
   21.8330    6.6780   30.9240 N   0  0  0  0  0  0  0  0  0  0  0  0
   21.2690    5.3860   30.8760 C   0  0  0  0  0  0  0  0  0  0  0  0
   20.1960    5.1120   31.3710 O   0  0  0  0  0  0  0  0  0  0  0  0
   22.1040    4.3950   30.0710 C   0  0  0  0  0  0  0  0  0  0  0  0
   23.4800    4.1520   30.6180 C   0  0  0  0  0  0  0  0  0  0  0  0
   24.5600    5.0310   30.2900 C   0  0  0  0  0  0  0  0  0  0  0  0
   24.1790    6.0790   29.4610 O   0  0  0  0  0  0  0  0  0  0  0  0
   25.1180    7.1760   29.2840 C   0  0  0  0  0  0  0  0  0  0  0  0
   25.8490    4.8040   30.7450 C   0  0  0  0  0  0  0  0  0  0  0  0
   26.1060    3.6910   31.5740 C   0  0  0  0  0  0  0  0  0  0  0  0
   27.4680    3.4550   32.0590 N   0  3  0  0  0  0  0  0  0  0  0  0
   27.6290    2.6430   32.9570 O   0  5  0  0  0  0  0  0  0  0  0  0
   28.3900    4.0760   31.5420 O   0  0  0  0  0  0  0  0  0  0  0  0
   25.0510    2.8110   31.9080 C   0  0  0  0  0  0  0  0  0  0  0  0
   23.7460    3.0490   31.4140 C   0  0  0  0  0  0  0  0  0  0  0  0
   25.4220    1.7760   32.7110 O   0  0  0  0  0  0  0  0  0  0  0  0
   24.4400    0.7270   32.9640 C   0  0  0  0  0  0  0  0  0  0  0  0
   25.2370   10.8750   29.9690 H   0  0  0  0  0  0  0  0  0  0  0  0
   24.7420   11.6890   31.5070 H   0  0  0  0  0  0  0  0  0  0  0  0
   24.4100    9.9240   31.2590 H   0  0  0  0  0  0  0  0  0  0  0  0
   23.0850   12.3180   29.7550 H   0  0  0  0  0  0  0  0  0  0  0  0
   22.8390   10.5390   29.3220 H   0  0  0  0  0  0  0  0  0  0  0  0
   19.5790    6.9550   32.5370 H   0  0  0  0  0  0  0  0  0  0  0  0
   17.9870    8.2870   33.7640 H   0  0  0  0  0  0  0  0  0  0  0  0
   18.0760   10.0450   33.8100 H   0  0  0  0  0  0  0  0  0  0  0  0
   22.7380    6.8370   30.4140 H   0  0  0  0  0  0  0  0  0  0  0  0
   21.5450    3.4210   30.0240 H   0  0  0  0  0  0  0  0  0  0  0  0
   22.1980    4.7990   29.0230 H   0  0  0  0  0  0  0  0  0  0  0  0
   25.4760    7.5530   30.2660 H   0  0  0  0  0  0  0  0  0  0  0  0
   25.9490    6.8370   28.6300 H   0  0  0  0  0  0  0  0  0  0  0  0
   24.4750    7.9320   28.7750 H   0  0  0  0  0  0  0  0  0  0  0  0
   26.6790    5.4640   30.4620 H   0  0  0  0  0  0  0  0  0  0  0  0
   22.9430    2.3490   31.6560 H   0  0  0  0  0  0  0  0  0  0  0  0
   25.0440   -0.0010   33.5580 H   0  0  0  0  0  0  0  0  0  0  0  0
   23.5970    1.1290   33.5650 H   0  0  0  0  0  0  0  0  0  0  0  0
   24.1050    0.2780   32.0040 H   0  0  0  0  0  0  0  0  0  0  0  0
  1  2  1  0  0  0  0
  1 30  1  0  0  0  0
  1 31  1  0  0  0  0
  1 32  1  0  0  0  0
  2  3  1  0  0  0  0
  2 33  1  0  0  0  0
  2 34  1  0  0  0  0
  3  4  1  0  0  0  0
  4 10  2  0  0  0  0
  4  5  1  0  0  0  0
  5  6  2  0  0  0  0
  6  7  1  0  0  0  0
  6 13  1  0  0  0  0
  7  8  2  0  0  0  0
  7 35  1  0  0  0  0
  8  9  1  0  0  0  0
  8 10  1  0  0  0  0
  9 36  1  0  0  0  0
  9 37  1  0  0  0  0
 10 11  1  0  0  0  0
 11 12  3  0  0  0  0
 13 14  1  0  0  0  0
 13 38  1  0  0  0  0
 14 15  2  0  0  0  0
 14 16  1  0  0  0  0
 16 17  1  0  0  0  0
 16 39  1  0  0  0  0
 16 40  1  0  0  0  0
 17 27  2  0  0  0  0
 17 18  1  0  0  0  0
 18 19  1  0  0  0  0
 18 21  2  0  0  0  0
 19 20  1  0  0  0  0
 20 41  1  0  0  0  0
 20 42  1  0  0  0  0
 20 43  1  0  0  0  0
 21 22  1  0  0  0  0
 21 44  1  0  0  0  0
 22 23  1  0  0  0  0
 22 26  2  0  0  0  0
 23 24  1  0  0  0  0
 23 25  2  0  0  0  0
 26 27  1  0  0  0  0
 26 28  1  0  0  0  0
 27 45  1  0  0  0  0
 28 29  1  0  0  0  0
 29 46  1  0  0  0  0
 29 47  1  0  0  0  0
 29 48  1  0  0  0  0
M  CHG  2  23   1  24  -1
M  END
$$$$
