18637-1
 OpenBabel02232411163D
Structure written by MMmdl.
 53 54  0  0  0  0  0  0  0  0999 V2000
   23.8500   12.6290   30.3500 C   0  0  0  0  0  0  0  0  0  0  0  0
   23.4000   11.1850   30.4660 C   0  0  0  0  0  0  0  0  0  0  0  0
   22.1470   11.2840   31.2570 O   0  0  0  0  0  0  0  0  0  0  0  0
   21.5100   10.1420   31.5950 C   0  0  0  0  0  0  0  0  0  0  0  0
   21.9870    8.9570   31.1480 N   0  0  0  0  0  0  0  0  0  0  0  0
   21.2540    7.8180   31.4550 C   0  0  0  0  0  0  0  0  0  0  0  0
   20.1010    7.8530   32.2350 C   0  0  0  0  0  0  0  0  0  0  0  0
   19.6210    9.1000   32.7140 C   0  0  0  0  0  0  0  0  0  0  0  0
   18.4810    9.1390   33.4770 N   0  0  0  0  0  0  0  0  0  0  0  0
   20.3270   10.2990   32.3770 C   0  0  0  0  0  0  0  0  0  0  0  0
   19.9040   11.5970   32.7320 C   0  0  0  0  0  0  0  0  0  0  0  0
   19.6020   12.6900   32.9790 N   0  0  0  0  0  0  0  0  0  0  0  0
   21.8110    6.6620   30.8690 N   0  0  0  0  0  0  0  0  0  0  0  0
   21.2070    5.3840   30.7750 C   0  0  0  0  0  0  0  0  0  0  0  0
   20.1320    5.1310   31.2750 O   0  0  0  0  0  0  0  0  0  0  0  0
   22.0060    4.4030   29.9250 C   0  0  0  0  0  0  0  0  0  0  0  0
   23.3270    4.0480   30.5380 C   0  0  0  0  0  0  0  0  0  0  0  0
   24.4650    4.8600   30.3400 C   0  0  0  0  0  0  0  0  0  0  0  0
   24.2230    5.9460   29.5150 O   0  0  0  0  0  0  0  0  0  0  0  0
   25.2340    6.9860   29.4180 C   0  0  0  0  0  0  0  0  0  0  0  0
   25.7070    4.5640   30.9180 C   0  0  0  0  0  0  0  0  0  0  0  0
   25.8410    3.4160   31.7030 C   0  0  0  0  0  0  0  0  0  0  0  0
   24.6970    2.5810   31.8950 C   0  0  0  0  0  0  0  0  0  0  0  0
   23.4690    2.8910   31.3180 C   0  0  0  0  0  0  0  0  0  0  0  0
   24.9480    1.4990   32.7230 O   0  0  0  0  0  0  0  0  0  0  0  0
   23.9930    0.4070   32.7090 C   0  0  0  0  0  0  0  0  0  0  0  0
   27.0660    3.0680   32.3440 N   0  0  0  0  0  0  0  0  0  0  0  0
   28.3590    3.3070   31.8150 C   0  0  0  0  0  0  0  0  0  0  0  0
   28.5030    3.8530   30.7340 O   0  0  0  0  0  0  0  0  0  0  0  0
   29.4730    2.8340   32.6960 C   0  0  0  0  0  0  0  0  0  0  0  0
   24.0820   13.0650   31.3480 H   0  0  0  0  0  0  0  0  0  0  0  0
   23.0670   13.2540   29.8600 H   0  0  0  0  0  0  0  0  0  0  0  0
   24.7720   12.6680   29.7180 H   0  0  0  0  0  0  0  0  0  0  0  0
   23.1420   10.7400   29.4790 H   0  0  0  0  0  0  0  0  0  0  0  0
   24.1220   10.5570   31.0350 H   0  0  0  0  0  0  0  0  0  0  0  0
   19.5480    6.9410   32.4670 H   0  0  0  0  0  0  0  0  0  0  0  0
   18.0810   10.0230   33.7910 H   0  0  0  0  0  0  0  0  0  0  0  0
   17.9820    8.2670   33.7380 H   0  0  0  0  0  0  0  0  0  0  0  0
   22.7340    6.8050   30.3880 H   0  0  0  0  0  0  0  0  0  0  0  0
   21.3930    3.4770   29.7810 H   0  0  0  0  0  0  0  0  0  0  0  0
   22.1800    4.8750   28.9190 H   0  0  0  0  0  0  0  0  0  0  0  0
   25.4900    7.3730   30.4270 H   0  0  0  0  0  0  0  0  0  0  0  0
   26.1190    6.5940   28.8750 H   0  0  0  0  0  0  0  0  0  0  0  0
   24.6970    7.7560   28.8170 H   0  0  0  0  0  0  0  0  0  0  0  0
   26.5650    5.2230   30.7590 H   0  0  0  0  0  0  0  0  0  0  0  0
   22.6090    2.2340   31.4710 H   0  0  0  0  0  0  0  0  0  0  0  0
   24.5100   -0.3450   33.3500 H   0  0  0  0  0  0  0  0  0  0  0  0
   23.0350    0.7330   33.1690 H   0  0  0  0  0  0  0  0  0  0  0  0
   23.8600    0.0290   31.6730 H   0  0  0  0  0  0  0  0  0  0  0  0
   26.9880    2.4510   33.1700 H   0  0  0  0  0  0  0  0  0  0  0  0
   29.5000    1.7160   32.7540 H   0  0  0  0  0  0  0  0  0  0  0  0
   30.4660    3.1750   32.3020 H   0  0  0  0  0  0  0  0  0  0  0  0
   29.3760    3.2260   33.7410 H   0  0  0  0  0  0  0  0  0  0  0  0
  1  2  1  0  0  0  0
  1 31  1  0  0  0  0
  1 32  1  0  0  0  0
  1 33  1  0  0  0  0
  2  3  1  0  0  0  0
  2 34  1  0  0  0  0
  2 35  1  0  0  0  0
  3  4  1  0  0  0  0
  4 10  2  0  0  0  0
  4  5  1  0  0  0  0
  5  6  2  0  0  0  0
  6  7  1  0  0  0  0
  6 13  1  0  0  0  0
  7  8  2  0  0  0  0
  7 36  1  0  0  0  0
  8  9  1  0  0  0  0
  8 10  1  0  0  0  0
  9 37  1  0  0  0  0
  9 38  1  0  0  0  0
 10 11  1  0  0  0  0
 11 12  3  0  0  0  0
 13 14  1  0  0  0  0
 13 39  1  0  0  0  0
 14 15  2  0  0  0  0
 14 16  1  0  0  0  0
 16 17  1  0  0  0  0
 16 40  1  0  0  0  0
 16 41  1  0  0  0  0
 17 24  2  0  0  0  0
 17 18  1  0  0  0  0
 18 19  1  0  0  0  0
 18 21  2  0  0  0  0
 19 20  1  0  0  0  0
 20 42  1  0  0  0  0
 20 43  1  0  0  0  0
 20 44  1  0  0  0  0
 21 22  1  0  0  0  0
 21 45  1  0  0  0  0
 22 23  2  0  0  0  0
 22 27  1  0  0  0  0
 23 24  1  0  0  0  0
 23 25  1  0  0  0  0
 24 46  1  0  0  0  0
 25 26  1  0  0  0  0
 26 47  1  0  0  0  0
 26 48  1  0  0  0  0
 26 49  1  0  0  0  0
 27 28  1  0  0  0  0
 27 50  1  0  0  0  0
 28 29  2  0  0  0  0
 28 30  1  0  0  0  0
 30 51  1  0  0  0  0
 30 52  1  0  0  0  0
 30 53  1  0  0  0  0
M  END
$$$$
