CAT-17c
                    3D
 Schrodinger Suite 2022-3.
 44 47  0  0  1  0  0  0  0  0999 V2000
   11.7820   -2.4380    1.2990 C   0  0  0  0  0  0  0  0  0  0  0  0
   13.0620   -2.8280    0.6750 N   0  0  0  0  0  0  0  0  0  0  0  0
   14.2690   -2.7700    1.3840 C   0  0  0  0  0  0  0  0  0  0  0  0
   14.3970   -2.6620    2.7360 N   0  0  0  0  0  0  0  0  0  0  0  0
   15.3340   -2.9220    0.5120 N   0  3  0  0  0  0  0  0  0  0  0  0
   14.8690   -3.1710   -0.9010 C   0  0  1  0  0  0  0  0  0  0  0  0
   15.4180   -2.0520   -1.7660 C   0  0  0  0  0  0  0  0  0  0  0  0
   16.4100   -2.2960   -2.7210 C   0  0  0  0  0  0  0  0  0  0  0  0
   16.8580   -1.2530   -3.5390 C   0  0  0  0  0  0  0  0  0  0  0  0
   16.3370    0.0340   -3.3960 C   0  0  0  0  0  0  0  0  0  0  0  0
   15.3780    0.2950   -2.4020 C   0  0  0  0  0  0  0  0  0  0  0  0
   14.8520    1.6640   -2.1960 C   0  0  0  0  0  0  0  0  0  0  0  0
   14.1240    2.3060   -3.2090 C   0  0  0  0  0  0  0  0  0  0  0  0
   13.6180    3.5910   -2.9960 C   0  0  0  0  0  0  0  0  0  0  0  0
   13.8310    4.2470   -1.7810 C   0  0  0  0  0  0  0  0  0  0  0  0
   14.5600    3.6030   -0.7670 C   0  0  0  0  0  0  0  0  0  0  0  0
   14.7730    4.2530    0.4920 C   0  0  0  0  0  0  0  0  0  0  0  0
   14.9410    4.7800    1.5080 N   0  0  0  0  0  0  0  0  0  0  0  0
   15.0740    2.3130   -0.9730 C   0  0  0  0  0  0  0  0  0  0  0  0
   14.9200   -0.7500   -1.5900 C   0  0  0  0  0  0  0  0  0  0  0  0
   15.1320   -4.5770   -1.4110 C   0  0  0  0  0  0  0  0  0  0  0  0
   16.3410   -5.3840   -0.9600 C   0  0  0  0  0  0  0  0  0  0  0  0
   14.9540   -5.7950   -0.5140 C   0  0  0  0  0  0  0  0  0  0  0  0
   13.3120   -3.0310   -0.7610 C   0  0  0  0  0  0  0  0  0  0  0  0
   12.4320   -3.0840   -1.5580 O   0  0  0  0  0  0  0  0  0  0  0  0
   11.6520   -2.9790    2.2760 H   0  0  0  0  0  0  0  0  0  0  0  0
   11.7870   -1.3310    1.4800 H   0  0  0  0  0  0  0  0  0  0  0  0
   10.9330   -2.7130    0.6180 H   0  0  0  0  0  0  0  0  0  0  0  0
   13.6640   -2.1920    3.3220 H   0  0  0  0  0  0  0  0  0  0  0  0
   16.2950   -3.1600    0.8640 H   0  0  0  0  0  0  0  0  0  0  0  0
   16.8400   -3.2940   -2.8260 H   0  0  0  0  0  0  0  0  0  0  0  0
   17.6270   -1.4530   -4.2930 H   0  0  0  0  0  0  0  0  0  0  0  0
   16.6790    0.8400   -4.0530 H   0  0  0  0  0  0  0  0  0  0  0  0
   13.9510    1.7990   -4.1630 H   0  0  0  0  0  0  0  0  0  0  0  0
   13.0470    4.0860   -3.7920 H   0  0  0  0  0  0  0  0  0  0  0  0
   13.4240    5.2510   -1.6280 H   0  0  0  0  0  0  0  0  0  0  0  0
   15.6390    1.8060   -0.1890 H   0  0  0  0  0  0  0  0  0  0  0  0
   14.1810   -0.5430   -0.8160 H   0  0  0  0  0  0  0  0  0  0  0  0
   14.8210   -4.6720   -2.4700 H   0  0  0  0  0  0  0  0  0  0  0  0
   16.8620   -5.9940   -1.7120 H   0  0  0  0  0  0  0  0  0  0  0  0
   17.0300   -4.9400   -0.2320 H   0  0  0  0  0  0  0  0  0  0  0  0
   14.6620   -5.6490    0.5330 H   0  0  0  0  0  0  0  0  0  0  0  0
   14.5000   -6.6980   -0.9510 H   0  0  0  0  0  0  0  0  0  0  0  0
   15.3680   -2.5630    3.1420 H   0  0  0  0  0  0  0  0  0  0  0  0
  1  2  1  0  0  0  0
  1 26  1  0  0  0  0
  1 27  1  0  0  0  0
  1 28  1  0  0  0  0
  2  3  1  0  0  0  0
  2 24  1  0  0  0  0
  3  4  1  0  0  0  0
  3  5  2  0  0  0  0
  4 29  1  0  0  0  0
  4 44  1  0  0  0  0
  5  6  1  0  0  0  0
  5 30  1  0  0  0  0
  6  7  1  0  0  0  0
  6 21  1  0  0  0  0
  6 24  1  0  0  0  0
  7  8  2  0  0  0  0
  7 20  1  0  0  0  0
  8  9  1  0  0  0  0
  8 31  1  0  0  0  0
  9 10  2  0  0  0  0
  9 32  1  0  0  0  0
 10 11  1  0  0  0  0
 10 33  1  0  0  0  0
 11 12  1  0  0  0  0
 11 20  2  0  0  0  0
 12 13  2  0  0  0  0
 12 19  1  0  0  0  0
 13 14  1  0  0  0  0
 13 34  1  0  0  0  0
 14 15  2  0  0  0  0
 14 35  1  0  0  0  0
 15 16  1  0  0  0  0
 15 36  1  0  0  0  0
 16 17  1  0  0  0  0
 16 19  2  0  0  0  0
 17 18  3  0  0  0  0
 19 37  1  0  0  0  0
 20 38  1  0  0  0  0
 21 22  1  0  0  0  0
 21 23  1  0  0  0  0
 21 39  1  0  0  0  0
 22 23  1  0  0  0  0
 22 40  1  0  0  0  0
 22 41  1  0  0  0  0
 23 42  1  0  0  0  0
 23 43  1  0  0  0  0
 24 25  2  0  0  0  0
M  CHG  1   5   1
M  END
$$$$
