p38a_2x
 OpenBabel02232411163D
Structure written by MMmdl.
 43 46  0  0  1  0  0  0  0  0999 V2000
   36.3720   36.0820   15.7560 C   0  0  0  0  0  0  0  0  0  0  0  0
   34.5610   34.9910   21.2770 C   0  0  0  0  0  0  0  0  0  0  0  0
   35.7090   35.5990   16.8800 C   0  0  0  0  0  0  0  0  0  0  0  0
   34.0340   39.0400   23.8660 C   0  0  0  0  0  0  0  0  0  0  0  0
   34.7570   37.8570   21.4830 C   0  0  0  0  0  0  0  0  0  0  0  0
   35.2140   37.2040   20.2850 C   0  0  0  0  0  0  0  0  0  0  0  0
   37.6650   36.5800   15.9590 C   0  0  0  0  0  0  0  0  0  0  0  0
   38.3050   36.5780   17.2020 C   0  0  0  0  0  0  0  0  0  0  0  0
   37.6030   36.1240   18.3240 C   0  0  0  0  0  0  0  0  0  0  0  0
   34.3260   37.0790   22.5990 C   0  0  0  0  0  0  0  0  0  0  0  0
   34.7370   39.2690   21.6410 C   0  0  0  0  0  0  0  0  0  0  0  0
   35.1510   35.8550   20.2170 C   0  0  0  0  0  0  0  0  0  0  0  0
   36.3040   35.6350   18.1570 C   0  0  0  0  0  0  0  0  0  0  0  0
   33.8110   34.8930   23.6860 C   0  0  0  0  0  0  0  0  0  0  0  0
   34.4940   35.0770   16.7740 F   0  0  0  0  0  0  0  0  0  0  0  0
   35.5690   35.0240   19.1800 O   0  0  0  0  0  0  0  0  0  0  0  0
   34.3910   39.8730   22.7900 N   0  0  0  0  0  0  0  0  0  0  0  0
   34.3440   33.8040   21.1740 O   0  0  0  0  0  0  0  0  0  0  0  0
   34.2420   35.6810   22.4970 N   0  0  0  0  0  0  0  0  0  0  0  0
   33.9790   37.6630   23.7920 N   0  0  0  0  0  0  0  0  0  0  0  0
   33.6480   39.6490   25.0470 N   0  0  0  0  0  0  0  0  0  0  0  0
   35.9010   36.0960   14.7710 H   0  0  0  0  0  0  0  0  0  0  0  0
   35.6120   37.8260   19.4800 H   0  0  0  0  0  0  0  0  0  0  0  0
   39.3260   36.9550   17.3090 H   0  0  0  0  0  0  0  0  0  0  0  0
   38.0660   36.1770   19.3120 H   0  0  0  0  0  0  0  0  0  0  0  0
   35.0160   39.9190   20.7960 H   0  0  0  0  0  0  0  0  0  0  0  0
   34.4860   35.1190   24.5570 H   0  0  0  0  0  0  0  0  0  0  0  0
   32.7600   35.1680   23.9720 H   0  0  0  0  0  0  0  0  0  0  0  0
   33.8600   33.7960   23.4630 H   0  0  0  0  0  0  0  0  0  0  0  0
   33.8130   40.6710   25.1570 H   0  0  0  0  0  0  0  0  0  0  0  0
   38.2980   37.1140   14.9170 F   0  0  0  0  0  0  0  0  0  0  0  0
   33.5770   39.3510   28.6520 O   0  0  0  0  0  0  0  0  0  0  0  0
   34.9210   38.8940   28.3260 C   0  0  0  0  0  0  0  0  0  0  0  0
   34.8960   38.4000   26.8730 C   0  0  0  0  0  0  0  0  0  0  0  0
   33.5280   38.8580   26.3010 C   0  0  1  0  0  0  0  0  0  0  0  0
   32.8990   39.7200   27.4290 C   0  0  0  0  0  0  0  0  0  0  0  0
   35.1190   38.0850   29.0610 H   0  0  0  0  0  0  0  0  0  0  0  0
   35.6110   39.7560   28.4620 H   0  0  0  0  0  0  0  0  0  0  0  0
   35.7450   38.8300   26.2970 H   0  0  0  0  0  0  0  0  0  0  0  0
   34.9760   37.2890   26.8220 H   0  0  0  0  0  0  0  0  0  0  0  0
   32.8800   37.9630   26.0860 H   0  0  0  0  0  0  0  0  0  0  0  0
   31.8320   39.4730   27.6110 H   0  0  0  0  0  0  0  0  0  0  0  0
   33.0500   40.8110   27.2710 H   0  0  0  0  0  0  0  0  0  0  0  0
  1  3  2  0  0  0  0
  1  7  1  0  0  0  0
  1 22  1  0  0  0  0
  2 12  1  0  0  0  0
  2 18  2  0  0  0  0
  2 19  1  0  0  0  0
  3 13  1  0  0  0  0
  3 15  1  0  0  0  0
  4 17  2  0  0  0  0
  4 20  1  0  0  0  0
  4 21  1  0  0  0  0
  5  6  1  0  0  0  0
  5 10  1  0  0  0  0
  5 11  2  0  0  0  0
  6 12  2  0  0  0  0
  6 23  1  0  0  0  0
  7  8  2  0  0  0  0
  7 31  1  0  0  0  0
  8  9  1  0  0  0  0
  8 24  1  0  0  0  0
  9 13  2  0  0  0  0
  9 25  1  0  0  0  0
 10 19  1  0  0  0  0
 10 20  2  0  0  0  0
 11 17  1  0  0  0  0
 11 26  1  0  0  0  0
 12 16  1  0  0  0  0
 13 16  1  0  0  0  0
 14 19  1  0  0  0  0
 14 27  1  0  0  0  0
 14 28  1  0  0  0  0
 14 29  1  0  0  0  0
 21 30  1  0  0  0  0
 21 35  1  0  0  0  0
 32 33  1  0  0  0  0
 32 36  1  0  0  0  0
 33 34  1  0  0  0  0
 33 37  1  0  0  0  0
 33 38  1  0  0  0  0
 34 35  1  0  0  0  0
 34 39  1  0  0  0  0
 34 40  1  0  0  0  0
 35 36  1  0  0  0  0
 35 41  1  1  0  0  0
 36 42  1  0  0  0  0
 36 43  1  0  0  0  0
M  END
$$$$
