18639-1
 OpenBabel02232411163D
Structure written by MMmdl.
 48 49  0  0  0  0  0  0  0  0999 V2000
   24.5030   10.7920   30.8190 C   0  0  0  0  0  0  0  0  0  0  0  0
   23.1930   11.1730   30.1620 C   0  0  0  0  0  0  0  0  0  0  0  0
   22.1010   11.2420   31.1570 O   0  0  0  0  0  0  0  0  0  0  0  0
   21.5050   10.0970   31.5600 C   0  0  0  0  0  0  0  0  0  0  0  0
   21.9680    8.9080   31.1090 N   0  0  0  0  0  0  0  0  0  0  0  0
   21.2640    7.7690   31.4660 C   0  0  0  0  0  0  0  0  0  0  0  0
   20.1300    7.8050   32.2690 C   0  0  0  0  0  0  0  0  0  0  0  0
   19.6580    9.0550   32.7500 C   0  0  0  0  0  0  0  0  0  0  0  0
   18.5210    9.0950   33.5170 N   0  0  0  0  0  0  0  0  0  0  0  0
   20.3640   10.2520   32.4030 C   0  0  0  0  0  0  0  0  0  0  0  0
   19.9750   11.5490   32.7990 C   0  0  0  0  0  0  0  0  0  0  0  0
   19.7090   12.6410   33.0860 N   0  0  0  0  0  0  0  0  0  0  0  0
   21.8400    6.6040   30.9070 N   0  0  0  0  0  0  0  0  0  0  0  0
   21.2480    5.3260   30.8320 C   0  0  0  0  0  0  0  0  0  0  0  0
   20.1610    5.0720   31.3050 O   0  0  0  0  0  0  0  0  0  0  0  0
   22.0740    4.3280   30.0280 C   0  0  0  0  0  0  0  0  0  0  0  0
   23.4400    4.0590   30.5880 C   0  0  0  0  0  0  0  0  0  0  0  0
   24.5370    4.9220   30.2750 C   0  0  0  0  0  0  0  0  0  0  0  0
   24.1820    5.9740   29.4400 O   0  0  0  0  0  0  0  0  0  0  0  0
   25.1400    7.0580   29.2760 C   0  0  0  0  0  0  0  0  0  0  0  0
   25.8150    4.6770   30.7520 C   0  0  0  0  0  0  0  0  0  0  0  0
   26.0430    3.5610   31.5840 C   0  0  0  0  0  0  0  0  0  0  0  0
   27.3930    3.3050   32.0930 N   0  3  0  0  0  0  0  0  0  0  0  0
   27.5220    2.5160   33.0160 O   0  5  0  0  0  0  0  0  0  0  0  0
   28.3360    3.8880   31.5700 O   0  0  0  0  0  0  0  0  0  0  0  0
   24.9700    2.6950   31.9000 C   0  0  0  0  0  0  0  0  0  0  0  0
   23.6770    2.9510   31.3850 C   0  0  0  0  0  0  0  0  0  0  0  0
   25.3140    1.6560   32.7120 O   0  0  0  0  0  0  0  0  0  0  0  0
   24.3140    0.6220   32.9500 C   0  0  0  0  0  0  0  0  0  0  0  0
   25.2960   10.7000   30.0350 H   0  0  0  0  0  0  0  0  0  0  0  0
   24.8220   11.5600   31.5540 H   0  0  0  0  0  0  0  0  0  0  0  0
   24.4230    9.8050   31.3340 H   0  0  0  0  0  0  0  0  0  0  0  0
   23.1870   12.2330   29.8110 H   0  0  0  0  0  0  0  0  0  0  0  0
   22.9070   10.4650   29.3520 H   0  0  0  0  0  0  0  0  0  0  0  0
   19.5860    6.8910   32.5170 H   0  0  0  0  0  0  0  0  0  0  0  0
   18.0200    8.2230   33.7730 H   0  0  0  0  0  0  0  0  0  0  0  0
   18.1240    9.9800   33.8340 H   0  0  0  0  0  0  0  0  0  0  0  0
   22.7500    6.7560   30.4040 H   0  0  0  0  0  0  0  0  0  0  0  0
   21.5000    3.3650   29.9650 H   0  0  0  0  0  0  0  0  0  0  0  0
   22.1880    4.7430   28.9860 H   0  0  0  0  0  0  0  0  0  0  0  0
   25.4840    7.4330   30.2630 H   0  0  0  0  0  0  0  0  0  0  0  0
   25.9780    6.7040   28.6390 H   0  0  0  0  0  0  0  0  0  0  0  0
   24.5160    7.8200   28.7520 H   0  0  0  0  0  0  0  0  0  0  0  0
   26.6580    5.3260   30.4830 H   0  0  0  0  0  0  0  0  0  0  0  0
   22.8600    2.2630   31.6150 H   0  0  0  0  0  0  0  0  0  0  0  0
   24.8940   -0.1100   33.5620 H   0  0  0  0  0  0  0  0  0  0  0  0
   23.4620    1.0380   33.5290 H   0  0  0  0  0  0  0  0  0  0  0  0
   23.9950    0.1700   31.9860 H   0  0  0  0  0  0  0  0  0  0  0  0
  1  2  1  0  0  0  0
  1 30  1  0  0  0  0
  1 31  1  0  0  0  0
  1 32  1  0  0  0  0
  2  3  1  0  0  0  0
  2 33  1  0  0  0  0
  2 34  1  0  0  0  0
  3  4  1  0  0  0  0
  4 10  2  0  0  0  0
  4  5  1  0  0  0  0
  5  6  2  0  0  0  0
  6  7  1  0  0  0  0
  6 13  1  0  0  0  0
  7  8  2  0  0  0  0
  7 35  1  0  0  0  0
  8  9  1  0  0  0  0
  8 10  1  0  0  0  0
  9 36  1  0  0  0  0
  9 37  1  0  0  0  0
 10 11  1  0  0  0  0
 11 12  3  0  0  0  0
 13 14  1  0  0  0  0
 13 38  1  0  0  0  0
 14 15  2  0  0  0  0
 14 16  1  0  0  0  0
 16 17  1  0  0  0  0
 16 39  1  0  0  0  0
 16 40  1  0  0  0  0
 17 27  2  0  0  0  0
 17 18  1  0  0  0  0
 18 19  1  0  0  0  0
 18 21  2  0  0  0  0
 19 20  1  0  0  0  0
 20 41  1  0  0  0  0
 20 42  1  0  0  0  0
 20 43  1  0  0  0  0
 21 22  1  0  0  0  0
 21 44  1  0  0  0  0
 22 23  1  0  0  0  0
 22 26  2  0  0  0  0
 23 24  1  0  0  0  0
 23 25  2  0  0  0  0
 26 27  1  0  0  0  0
 26 28  1  0  0  0  0
 27 45  1  0  0  0  0
 28 29  1  0  0  0  0
 29 46  1  0  0  0  0
 29 47  1  0  0  0  0
 29 48  1  0  0  0  0
M  CHG  2  23   1  24  -1
M  END
$$$$
