45
 OpenBabel02232411163D
Structure written by MMmdl.
 48 51  0  0  0  0  0  0  0  0999 V2000
    3.9230  -50.1770    5.9440 O   0  0  0  0  0  0  0  0  0  0  0  0
    3.1760  -49.3840    6.5480 C   0  0  0  0  0  0  0  0  0  0  0  0
    3.5130  -48.3880    7.1970 O   0  5  0  0  0  0  0  0  0  0  0  0
    1.6760  -49.7410    6.4630 C   0  0  0  0  0  0  0  0  0  0  0  0
   -0.1430  -51.1070    6.7220 C   0  0  0  0  0  0  0  0  0  0  0  0
   -1.0430  -52.1250    7.0770 C   0  0  0  0  0  0  0  0  0  0  0  0
   -2.3640  -51.9790    6.6780 C   0  0  0  0  0  0  0  0  0  0  0  0
   -2.7780  -50.8630    5.9160 C   0  0  0  0  0  0  0  0  0  0  0  0
   -1.8850  -49.8670    5.5410 C   0  0  0  0  0  0  0  0  0  0  0  0
   -0.5510  -49.9420    5.9720 C   0  0  0  0  0  0  0  0  0  0  0  0
    0.6080  -49.0840    5.8590 C   0  0  0  0  0  0  0  0  0  0  0  0
    0.5970  -47.7220    5.2610 C   0  0  0  0  0  0  0  0  0  0  0  0
   -0.0620  -46.6780    6.1820 C   0  0  0  0  0  0  0  0  0  0  0  0
   -1.5900  -46.7530    6.1090 C   0  0  0  0  0  0  0  0  0  0  0  0
   -1.9960  -45.4770    6.7070 O   0  0  0  0  0  0  0  0  0  0  0  0
   -3.3570  -45.2310    6.7740 C   0  0  0  0  0  0  0  0  0  0  0  0
   -5.9540  -44.3220    7.1300 C   0  0  0  0  0  0  0  0  0  0  0  0
   -5.2250  -43.9190    6.0100 C   0  0  0  0  0  0  0  0  0  0  0  0
   -3.9140  -44.3630    5.8260 C   0  0  0  0  0  0  0  0  0  0  0  0
   -0.7260  -52.9950    7.6510 H   0  0  0  0  0  0  0  0  0  0  0  0
   -3.1030  -52.7330    6.9500 H   0  0  0  0  0  0  0  0  0  0  0  0
   -3.8260  -50.7870    5.6230 H   0  0  0  0  0  0  0  0  0  0  0  0
   -2.2320  -49.0500    4.9090 H   0  0  0  0  0  0  0  0  0  0  0  0
    0.0190  -47.7390    4.3060 H   0  0  0  0  0  0  0  0  0  0  0  0
    1.6380  -47.3810    5.0400 H   0  0  0  0  0  0  0  0  0  0  0  0
    0.2520  -46.8310    7.2390 H   0  0  0  0  0  0  0  0  0  0  0  0
    0.2450  -45.6510    5.8730 H   0  0  0  0  0  0  0  0  0  0  0  0
   -1.9900  -46.7690    5.0740 H   0  0  0  0  0  0  0  0  0  0  0  0
   -2.0070  -47.5720    6.7290 H   0  0  0  0  0  0  0  0  0  0  0  0
   -3.3370  -44.0290    4.9690 H   0  0  0  0  0  0  0  0  0  0  0  0
   -5.3980  -45.2150    8.0630 C   0  0  0  0  0  0  0  0  0  0  0  0
   -4.1060  -45.7300    7.8630 C   0  0  0  0  0  0  0  0  0  0  0  0
   -3.5250  -46.8200    8.7170 C   0  0  0  0  0  0  0  0  0  0  0  0
   -4.2450  -47.0140   10.0540 C   0  0  0  0  0  0  0  0  0  0  0  0
   -5.7630  -46.9280    9.8740 C   0  0  0  0  0  0  0  0  0  0  0  0
   -6.1940  -45.5790    9.2870 C   0  0  0  0  0  0  0  0  0  0  0  0
   -5.6810  -43.2490    5.2810 H   0  0  0  0  0  0  0  0  0  0  0  0
   -6.9670  -43.9500    7.2760 H   0  0  0  0  0  0  0  0  0  0  0  0
   -3.6150  -47.7770    8.1370 H   0  0  0  0  0  0  0  0  0  0  0  0
   -2.4490  -46.5990    8.9100 H   0  0  0  0  0  0  0  0  0  0  0  0
   -4.0000  -48.0180   10.4710 H   0  0  0  0  0  0  0  0  0  0  0  0
   -3.9090  -46.2460   10.7720 H   0  0  0  0  0  0  0  0  0  0  0  0
   -6.0690  -47.7450    9.1810 H   0  0  0  0  0  0  0  0  0  0  0  0
   -6.2630  -47.0780   10.8530 H   0  0  0  0  0  0  0  0  0  0  0  0
   -6.0490  -44.7740   10.0500 H   0  0  0  0  0  0  0  0  0  0  0  0
   -7.2830  -45.6220    9.0390 H   0  0  0  0  0  0  0  0  0  0  0  0
    1.2280  -50.9650    6.9950 N   0  0  0  0  0  0  0  0  0  0  0  0
    1.7710  -51.6650    7.4870 H   0  0  0  0  0  0  0  0  0  0  0  0
  1  2  2  0  0  0  0
  2  3  1  0  0  0  0
  2  4  1  0  0  0  0
  4 11  2  0  0  0  0
  4 47  1  0  0  0  0
  5  6  2  0  0  0  0
  5 10  1  0  0  0  0
  5 47  1  0  0  0  0
  6  7  1  0  0  0  0
  6 20  1  0  0  0  0
  7  8  2  0  0  0  0
  7 21  1  0  0  0  0
  8  9  1  0  0  0  0
  8 22  1  0  0  0  0
  9 10  2  0  0  0  0
  9 23  1  0  0  0  0
 10 11  1  0  0  0  0
 11 12  1  0  0  0  0
 12 24  1  0  0  0  0
 12 25  1  0  0  0  0
 12 13  1  0  0  0  0
 13 14  1  0  0  0  0
 13 26  1  0  0  0  0
 13 27  1  0  0  0  0
 14 15  1  0  0  0  0
 14 28  1  0  0  0  0
 14 29  1  0  0  0  0
 15 16  1  0  0  0  0
 16 19  2  0  0  0  0
 16 32  1  0  0  0  0
 17 18  2  0  0  0  0
 17 31  1  0  0  0  0
 17 38  1  0  0  0  0
 18 19  1  0  0  0  0
 18 37  1  0  0  0  0
 19 30  1  0  0  0  0
 31 32  2  0  0  0  0
 31 36  1  0  0  0  0
 32 33  1  0  0  0  0
 33 34  1  0  0  0  0
 33 39  1  0  0  0  0
 33 40  1  0  0  0  0
 34 35  1  0  0  0  0
 34 41  1  0  0  0  0
 34 42  1  0  0  0  0
 35 36  1  0  0  0  0
 35 43  1  0  0  0  0
 35 44  1  0  0  0  0
 36 45  1  0  0  0  0
 36 46  1  0  0  0  0
 47 48  1  0  0  0  0
M  CHG  1   3  -1
M  END
$$$$
