p38a_2j
 OpenBabel02232411163D
Structure written by MMmdl.
 48 51  0  0  0  0  0  0  0  0999 V2000
   32.7900   40.0920   27.5560 C   0  0  0  0  0  0  0  0  0  0  0  0
   32.8080   39.5330   28.9840 C   0  0  0  0  0  0  0  0  0  0  0  0
   35.1300   38.8950   28.8100 C   0  0  0  0  0  0  0  0  0  0  0  0
   35.2340   39.4270   27.3750 C   0  0  0  0  0  0  0  0  0  0  0  0
   36.6850   35.7080   16.1700 C   0  0  0  0  0  0  0  0  0  0  0  0
   34.1280   39.6090   29.5700 O   0  0  0  0  0  0  0  0  0  0  0  0
   34.1810   35.2050   21.7220 C   0  0  0  0  0  0  0  0  0  0  0  0
   35.6000   35.3830   16.9840 C   0  0  0  0  0  0  0  0  0  0  0  0
   34.1030   39.3680   24.1860 C   0  0  0  0  0  0  0  0  0  0  0  0
   33.8490   39.3700   26.6940 C   0  0  0  0  0  0  0  0  0  0  0  0
   34.3200   38.0690   21.7690 C   0  0  0  0  0  0  0  0  0  0  0  0
   34.3940   37.3570   20.5290 C   0  0  0  0  0  0  0  0  0  0  0  0
   37.9390   36.2380   18.2120 C   0  0  0  0  0  0  0  0  0  0  0  0
   36.8190   35.9110   18.9820 C   0  0  0  0  0  0  0  0  0  0  0  0
   34.1860   37.3420   22.9900 C   0  0  0  0  0  0  0  0  0  0  0  0
   34.3700   39.4890   21.8560 C   0  0  0  0  0  0  0  0  0  0  0  0
   34.3310   36.0000   20.4960 C   0  0  0  0  0  0  0  0  0  0  0  0
   35.6130   35.5060   18.3860 C   0  0  0  0  0  0  0  0  0  0  0  0
   34.0420   35.2060   24.2580 C   0  0  0  0  0  0  0  0  0  0  0  0
   34.5070   34.9160   16.3800 F   0  0  0  0  0  0  0  0  0  0  0  0
   34.3750   35.2390   19.1990 C   0  0  0  0  0  0  0  0  0  0  0  0
   34.2660   40.1480   23.0160 N   0  0  0  0  0  0  0  0  0  0  0  0
   34.0820   33.9930   21.7960 O   0  0  0  0  0  0  0  0  0  0  0  0
   34.1450   35.9470   22.9700 N   0  0  0  0  0  0  0  0  0  0  0  0
   34.0860   37.9880   24.2000 N   0  0  0  0  0  0  0  0  0  0  0  0
   33.9060   40.0440   25.3620 N   0  0  0  0  0  0  0  0  0  0  0  0
   31.7780   39.9420   27.1110 H   0  0  0  0  0  0  0  0  0  0  0  0
   33.0030   41.1870   27.5840 H   0  0  0  0  0  0  0  0  0  0  0  0
   32.2060   40.1720   29.6720 H   0  0  0  0  0  0  0  0  0  0  0  0
   32.4620   38.4730   29.0030 H   0  0  0  0  0  0  0  0  0  0  0  0
   34.8820   37.8080   28.8150 H   0  0  0  0  0  0  0  0  0  0  0  0
   36.0600   39.1050   29.3870 H   0  0  0  0  0  0  0  0  0  0  0  0
   35.6080   40.4790   27.3870 H   0  0  0  0  0  0  0  0  0  0  0  0
   35.9590   38.8000   26.8030 H   0  0  0  0  0  0  0  0  0  0  0  0
   36.6290   35.6400   15.0820 H   0  0  0  0  0  0  0  0  0  0  0  0
   33.5420   38.2950   26.5560 H   0  0  0  0  0  0  0  0  0  0  0  0
   34.5080   37.9420   19.6090 H   0  0  0  0  0  0  0  0  0  0  0  0
   38.8590   36.5830   18.6860 H   0  0  0  0  0  0  0  0  0  0  0  0
   36.8800   36.0010   20.0690 H   0  0  0  0  0  0  0  0  0  0  0  0
   34.4990   40.0900   20.9380 H   0  0  0  0  0  0  0  0  0  0  0  0
   34.8970   35.4860   24.9310 H   0  0  0  0  0  0  0  0  0  0  0  0
   33.0810   35.4620   24.7780 H   0  0  0  0  0  0  0  0  0  0  0  0
   34.0740   34.1010   24.0670 H   0  0  0  0  0  0  0  0  0  0  0  0
   33.9740   41.0810   25.3810 H   0  0  0  0  0  0  0  0  0  0  0  0
   34.3010   34.1350   19.3960 H   0  0  0  0  0  0  0  0  0  0  0  0
   33.4610   35.5390   18.6120 H   0  0  0  0  0  0  0  0  0  0  0  0
   37.8330   36.1630   16.8220 C   0  0  0  0  0  0  0  0  0  0  0  0
   38.8620   36.5660   16.0810 F   0  0  0  0  0  0  0  0  0  0  0  0
  1  2  1  0  0  0  0
  1 10  1  0  0  0  0
  1 27  1  0  0  0  0
  1 28  1  0  0  0  0
  2  6  1  0  0  0  0
  2 29  1  0  0  0  0
  2 30  1  0  0  0  0
  3  4  1  0  0  0  0
  3  6  1  0  0  0  0
  3 31  1  0  0  0  0
  3 32  1  0  0  0  0
  4 10  1  0  0  0  0
  4 33  1  0  0  0  0
  4 34  1  0  0  0  0
  5  8  2  0  0  0  0
  5 35  1  0  0  0  0
  5 47  1  0  0  0  0
  7 17  1  0  0  0  0
  7 23  2  0  0  0  0
  7 24  1  0  0  0  0
  8 18  1  0  0  0  0
  8 20  1  0  0  0  0
  9 22  2  0  0  0  0
  9 25  1  0  0  0  0
  9 26  1  0  0  0  0
 10 26  1  0  0  0  0
 10 36  1  0  0  0  0
 11 12  1  0  0  0  0
 11 15  1  0  0  0  0
 11 16  2  0  0  0  0
 12 17  2  0  0  0  0
 12 37  1  0  0  0  0
 13 14  1  0  0  0  0
 13 38  1  0  0  0  0
 13 47  2  0  0  0  0
 14 18  2  0  0  0  0
 14 39  1  0  0  0  0
 15 24  1  0  0  0  0
 15 25  2  0  0  0  0
 16 22  1  0  0  0  0
 16 40  1  0  0  0  0
 17 21  1  0  0  0  0
 18 21  1  0  0  0  0
 19 24  1  0  0  0  0
 19 41  1  0  0  0  0
 19 42  1  0  0  0  0
 19 43  1  0  0  0  0
 21 45  1  0  0  0  0
 21 46  1  0  0  0  0
 26 44  1  0  0  0  0
 47 48  1  0  0  0  0
M  END
$$$$
