18634-1
 OpenBabel02232411163D
Structure written by MMmdl.
 46 47  0  0  0  0  0  0  0  0999 V2000
   23.8460   12.5860   30.3420 C   0  0  0  0  0  0  0  0  0  0  0  0
   23.4010   11.1410   30.4620 C   0  0  0  0  0  0  0  0  0  0  0  0
   22.1480   11.2390   31.2530 O   0  0  0  0  0  0  0  0  0  0  0  0
   21.5110   10.0970   31.5920 C   0  0  0  0  0  0  0  0  0  0  0  0
   21.9850    8.9110   31.1450 N   0  0  0  0  0  0  0  0  0  0  0  0
   21.2600    7.7700   31.4660 C   0  0  0  0  0  0  0  0  0  0  0  0
   20.1110    7.8070   32.2510 C   0  0  0  0  0  0  0  0  0  0  0  0
   19.6270    9.0560   32.7220 C   0  0  0  0  0  0  0  0  0  0  0  0
   18.4840    9.0990   33.4790 N   0  0  0  0  0  0  0  0  0  0  0  0
   20.3320   10.2550   32.3800 C   0  0  0  0  0  0  0  0  0  0  0  0
   19.9150   11.5530   32.7400 C   0  0  0  0  0  0  0  0  0  0  0  0
   19.6170   12.6450   32.9930 N   0  0  0  0  0  0  0  0  0  0  0  0
   21.8230    6.6120   30.8890 N   0  0  0  0  0  0  0  0  0  0  0  0
   21.2600    5.3140   30.8630 C   0  0  0  0  0  0  0  0  0  0  0  0
   20.2020    5.0450   31.3920 O   0  0  0  0  0  0  0  0  0  0  0  0
   22.0770    4.3210   30.0480 C   0  0  0  0  0  0  0  0  0  0  0  0
   23.4280    4.0500   30.6430 C   0  0  0  0  0  0  0  0  0  0  0  0
   24.5340    4.8980   30.3420 C   0  0  0  0  0  0  0  0  0  0  0  0
   24.2040    5.9320   29.4700 O   0  0  0  0  0  0  0  0  0  0  0  0
   25.1750    7.0000   29.3080 C   0  0  0  0  0  0  0  0  0  0  0  0
   25.7990    4.6670   30.8680 C   0  0  0  0  0  0  0  0  0  0  0  0
   26.0020    3.5820   31.7350 C   0  0  0  0  0  0  0  0  0  0  0  0
   24.9250    2.7500   32.0370 C   0  0  0  0  0  0  0  0  0  0  0  0
   23.6400    2.9650   31.4820 C   0  0  0  0  0  0  0  0  0  0  0  0
   24.9550    1.6540   32.8750 O   0  0  0  0  0  0  0  0  0  0  0  0
   26.2180    1.3320   33.5120 C   0  0  0  0  0  0  0  0  0  0  0  0
   24.7720   12.6240   29.7140 H   0  0  0  0  0  0  0  0  0  0  0  0
   23.0640   13.2060   29.8430 H   0  0  0  0  0  0  0  0  0  0  0  0
   24.0720   13.0270   31.3380 H   0  0  0  0  0  0  0  0  0  0  0  0
   23.1450   10.6920   29.4760 H   0  0  0  0  0  0  0  0  0  0  0  0
   24.1250   10.5170   31.0320 H   0  0  0  0  0  0  0  0  0  0  0  0
   19.5630    6.8940   32.4950 H   0  0  0  0  0  0  0  0  0  0  0  0
   18.0870    9.9860   33.7920 H   0  0  0  0  0  0  0  0  0  0  0  0
   17.9890    8.2290   33.7540 H   0  0  0  0  0  0  0  0  0  0  0  0
   22.7350    6.7610   30.3870 H   0  0  0  0  0  0  0  0  0  0  0  0
   21.5010    3.3620   29.9690 H   0  0  0  0  0  0  0  0  0  0  0  0
   22.2100    4.7420   29.0130 H   0  0  0  0  0  0  0  0  0  0  0  0
   26.0500    6.6210   28.7380 H   0  0  0  0  0  0  0  0  0  0  0  0
   24.5940    7.7460   28.7200 H   0  0  0  0  0  0  0  0  0  0  0  0
   25.4720    7.4120   30.2980 H   0  0  0  0  0  0  0  0  0  0  0  0
   26.6520    5.3060   30.6240 H   0  0  0  0  0  0  0  0  0  0  0  0
   27.0010    3.4210   32.1440 H   0  0  0  0  0  0  0  0  0  0  0  0
   22.8370    2.2630   31.7230 H   0  0  0  0  0  0  0  0  0  0  0  0
   26.9850    1.0860   32.7450 H   0  0  0  0  0  0  0  0  0  0  0  0
   26.5440    2.1690   34.1670 H   0  0  0  0  0  0  0  0  0  0  0  0
   25.9480    0.4310   34.1120 H   0  0  0  0  0  0  0  0  0  0  0  0
  1  2  1  0  0  0  0
  1 27  1  0  0  0  0
  1 28  1  0  0  0  0
  1 29  1  0  0  0  0
  2  3  1  0  0  0  0
  2 30  1  0  0  0  0
  2 31  1  0  0  0  0
  3  4  1  0  0  0  0
  4 10  2  0  0  0  0
  4  5  1  0  0  0  0
  5  6  2  0  0  0  0
  6  7  1  0  0  0  0
  6 13  1  0  0  0  0
  7  8  2  0  0  0  0
  7 32  1  0  0  0  0
  8  9  1  0  0  0  0
  8 10  1  0  0  0  0
  9 33  1  0  0  0  0
  9 34  1  0  0  0  0
 10 11  1  0  0  0  0
 11 12  3  0  0  0  0
 13 14  1  0  0  0  0
 13 35  1  0  0  0  0
 14 15  2  0  0  0  0
 14 16  1  0  0  0  0
 16 17  1  0  0  0  0
 16 36  1  0  0  0  0
 16 37  1  0  0  0  0
 17 24  2  0  0  0  0
 17 18  1  0  0  0  0
 18 19  1  0  0  0  0
 18 21  2  0  0  0  0
 19 20  1  0  0  0  0
 20 38  1  0  0  0  0
 20 39  1  0  0  0  0
 20 40  1  0  0  0  0
 21 22  1  0  0  0  0
 21 41  1  0  0  0  0
 22 23  2  0  0  0  0
 22 42  1  0  0  0  0
 23 24  1  0  0  0  0
 23 25  1  0  0  0  0
 24 43  1  0  0  0  0
 25 26  1  0  0  0  0
 26 44  1  0  0  0  0
 26 45  1  0  0  0  0
 26 46  1  0  0  0  0
M  END
$$$$
