40
                    3D
 Schrodinger Suite 2022-3.
 49 52  0  0  1  0  0  0  0  0999 V2000
    4.7330  -49.3970    8.3770 O   0  0  0  0  0  0  0  0  0  0  0  0
    4.5000  -50.6040    8.5490 C   0  0  0  0  0  0  0  0  0  0  0  0
    5.3170  -51.4870    8.8680 O   0  5  0  0  0  0  0  0  0  0  0  0
    3.0500  -51.0760    8.3660 C   0  0  0  0  0  0  0  0  0  0  0  0
    1.0710  -52.0040    9.0360 C   0  0  0  0  0  0  0  0  0  0  0  0
    0.0070  -52.5760    9.7510 C   0  0  0  0  0  0  0  0  0  0  0  0
   -1.1290  -52.9230    9.0350 C   0  0  0  0  0  0  0  0  0  0  0  0
   -1.2060  -52.7180    7.6380 C   0  0  0  0  0  0  0  0  0  0  0  0
   -0.1520  -52.1610    6.9250 C   0  0  0  0  0  0  0  0  0  0  0  0
    1.0070  -51.7680    7.6130 C   0  0  0  0  0  0  0  0  0  0  0  0
    2.2620  -51.1600    7.2240 C   0  0  0  0  0  0  0  0  0  0  0  0
    2.5950  -50.7500    5.8330 C   0  0  0  0  0  0  0  0  0  0  0  0
    3.0740  -49.2940    5.6780 C   0  0  0  0  0  0  0  0  0  0  0  0
    2.0120  -48.2530    6.0270 C   0  0  0  0  0  0  0  0  0  0  0  0
    0.8540  -48.6230    5.1890 O   0  0  0  0  0  0  0  0  0  0  0  0
   -0.3990  -48.3440    5.6440 C   0  0  0  0  0  0  0  0  0  0  0  0
   -0.7540  -47.1550    6.2980 C   0  0  0  0  0  0  0  0  0  0  0  0
   -2.1020  -47.0230    6.6580 C   0  0  0  0  0  0  0  0  0  0  0  0
   -3.0600  -48.0100    6.4350 C   0  0  0  0  0  0  0  0  0  0  0  0
   -2.6730  -49.1660    5.7390 C   0  0  0  0  0  0  0  0  0  0  0  0
   -1.3570  -49.3380    5.3340 C   0  0  0  0  0  0  0  0  0  0  0  0
    0.0630  -52.7490   10.8270 H   0  0  0  0  0  0  0  0  0  0  0  0
   -1.9820  -53.3730    9.5490 H   0  0  0  0  0  0  0  0  0  0  0  0
   -2.1220  -53.0090    7.1210 H   0  0  0  0  0  0  0  0  0  0  0  0
   -0.2300  -52.0490    5.8430 H   0  0  0  0  0  0  0  0  0  0  0  0
    1.6860  -50.8780    5.1830 H   0  0  0  0  0  0  0  0  0  0  0  0
    3.3890  -51.4280    5.4190 H   0  0  0  0  0  0  0  0  0  0  0  0
    3.3960  -49.1540    4.6170 H   0  0  0  0  0  0  0  0  0  0  0  0
    3.9480  -49.1190    6.3640 H   0  0  0  0  0  0  0  0  0  0  0  0
    2.2920  -47.2280    5.7050 H   0  0  0  0  0  0  0  0  0  0  0  0
    1.7070  -48.3140    7.0920 H   0  0  0  0  0  0  0  0  0  0  0  0
   -0.0470  -46.3580    6.5030 H   0  0  0  0  0  0  0  0  0  0  0  0
   -1.0490  -50.2370    4.8070 H   0  0  0  0  0  0  0  0  0  0  0  0
    2.3310  -51.5640    9.4740 N   0  0  0  0  0  0  0  0  0  0  0  0
    2.6580  -51.6640   10.4290 H   0  0  0  0  0  0  0  0  0  0  0  0
   -3.4230  -49.9330    5.5280 H   0  0  0  0  0  0  0  0  0  0  0  0
   -4.0800  -47.9160    6.7930 H   0  0  0  0  0  0  0  0  0  0  0  0
   -2.3970  -45.8190    7.3080 O   0  0  0  0  0  0  0  0  0  0  0  0
   -6.2510  -44.2400    7.1560 C   0  0  0  0  0  0  0  0  0  0  0  0
   -5.3600  -44.0050    6.1020 C   0  0  0  0  0  0  0  0  0  0  0  0
   -4.0840  -44.5740    6.1170 C   0  0  0  0  0  0  0  0  0  0  0  0
   -3.7230  -45.3620    7.2190 C   0  0  0  0  0  0  0  0  0  0  0  0
   -4.5950  -45.6110    8.2850 C   0  0  0  0  0  0  0  0  0  0  0  0
   -5.8690  -45.0370    8.2410 C   0  0  0  0  0  0  0  0  0  0  0  0
   -7.2510  -43.8060    7.1260 H   0  0  0  0  0  0  0  0  0  0  0  0
   -5.6690  -43.3830    5.2610 H   0  0  0  0  0  0  0  0  0  0  0  0
   -3.4050  -44.4090    5.2820 H   0  0  0  0  0  0  0  0  0  0  0  0
   -4.3060  -46.2450    9.1240 H   0  0  0  0  0  0  0  0  0  0  0  0
   -6.5790  -45.2190    9.0510 H   0  0  0  0  0  0  0  0  0  0  0  0
  1  2  2  0  0  0  0
  2  3  1  0  0  0  0
  2  4  1  0  0  0  0
  4 11  2  0  0  0  0
  4 34  1  0  0  0  0
  5  6  1  0  0  0  0
  5 10  2  0  0  0  0
  5 34  1  0  0  0  0
  6  7  2  0  0  0  0
  6 22  1  0  0  0  0
  7  8  1  0  0  0  0
  7 23  1  0  0  0  0
  8  9  2  0  0  0  0
  8 24  1  0  0  0  0
  9 10  1  0  0  0  0
  9 25  1  0  0  0  0
 10 11  1  0  0  0  0
 11 12  1  0  0  0  0
 12 26  1  0  0  0  0
 12 27  1  0  0  0  0
 12 13  1  0  0  0  0
 13 14  1  0  0  0  0
 13 28  1  0  0  0  0
 13 29  1  0  0  0  0
 14 15  1  0  0  0  0
 14 30  1  0  0  0  0
 14 31  1  0  0  0  0
 15 16  1  0  0  0  0
 16 17  1  0  0  0  0
 16 21  2  0  0  0  0
 17 18  2  0  0  0  0
 17 32  1  0  0  0  0
 18 19  1  0  0  0  0
 18 38  1  0  0  0  0
 19 20  2  0  0  0  0
 19 37  1  0  0  0  0
 20 21  1  0  0  0  0
 20 36  1  0  0  0  0
 21 33  1  0  0  0  0
 34 35  1  0  0  0  0
 38 42  1  0  0  0  0
 39 40  2  0  0  0  0
 39 44  1  0  0  0  0
 39 45  1  0  0  0  0
 40 41  1  0  0  0  0
 40 46  1  0  0  0  0
 41 42  2  0  0  0  0
 41 47  1  0  0  0  0
 42 43  1  0  0  0  0
 43 44  2  0  0  0  0
 43 48  1  0  0  0  0
 44 49  1  0  0  0  0
M  CHG  1   3  -1
M  END
$$$$
