p38a_3flw
 OpenBabel02232411163D
Structure written by MMmdl.
 49 51  0  0  0  0  0  0  0  0999 V2000
   38.2920   36.5330   17.1790 C   0  0  0  0  0  0  0  0  0  0  0  0
   37.6470   36.6880   15.9440 C   0  0  0  0  0  0  0  0  0  0  0  0
   31.6900   38.0090   26.0690 C   0  0  0  0  0  0  0  0  0  0  0  0
   31.0740   37.7240   27.4480 C   0  0  0  0  0  0  0  0  0  0  0  0
   34.0530   38.6860   26.7930 C   0  0  0  0  0  0  0  0  0  0  0  0
   33.6050   34.9150   23.5620 C   0  0  0  0  0  0  0  0  0  0  0  0
   38.0330   35.9440   19.4430 F   0  0  0  0  0  0  0  0  0  0  0  0
   37.5060   36.0760   18.2330 C   0  0  0  0  0  0  0  0  0  0  0  0
   38.3460   37.1890   14.9290 F   0  0  0  0  0  0  0  0  0  0  0  0
   36.3000   36.3840   15.7340 C   0  0  0  0  0  0  0  0  0  0  0  0
   35.5360   35.9110   16.8070 C   0  0  0  0  0  0  0  0  0  0  0  0
   36.1460   35.7480   18.0530 C   0  0  0  0  0  0  0  0  0  0  0  0
   35.4350   35.1060   19.0760 O   0  0  0  0  0  0  0  0  0  0  0  0
   34.9940   35.9160   20.1200 C   0  0  0  0  0  0  0  0  0  0  0  0
   34.9920   37.2670   20.1810 C   0  0  0  0  0  0  0  0  0  0  0  0
   34.5000   37.9040   21.3730 C   0  0  0  0  0  0  0  0  0  0  0  0
   34.4550   39.3150   21.5310 C   0  0  0  0  0  0  0  0  0  0  0  0
   34.0100   39.9060   22.6500 N   0  0  0  0  0  0  0  0  0  0  0  0
   34.4770   35.0290   21.1980 C   0  0  0  0  0  0  0  0  0  0  0  0
   34.3910   33.8220   21.1340 O   0  0  0  0  0  0  0  0  0  0  0  0
   34.0600   35.7170   22.3900 N   0  0  0  0  0  0  0  0  0  0  0  0
   34.0450   37.1180   22.4730 C   0  0  0  0  0  0  0  0  0  0  0  0
   33.5830   37.6960   23.6340 N   0  0  0  0  0  0  0  0  0  0  0  0
   33.5460   39.0690   23.6850 C   0  0  0  0  0  0  0  0  0  0  0  0
   32.9570   39.7230   24.7570 N   0  0  0  0  0  0  0  0  0  0  0  0
   32.7390   39.1380   26.1200 C   0  0  0  0  0  0  0  0  0  0  0  0
   35.1850   39.7210   26.7760 C   0  0  0  0  0  0  0  0  0  0  0  0
   34.7900   40.9910   27.3290 O   0  0  0  0  0  0  0  0  0  0  0  0
   30.6470   36.3450   27.4760 O   0  0  0  0  0  0  0  0  0  0  0  0
   39.3450   36.7950   17.3150 H   0  0  0  0  0  0  0  0  0  0  0  0
   32.1590   37.0640   25.6920 H   0  0  0  0  0  0  0  0  0  0  0  0
   30.8800   38.2970   25.3570 H   0  0  0  0  0  0  0  0  0  0  0  0
   31.8310   37.7810   28.2640 H   0  0  0  0  0  0  0  0  0  0  0  0
   30.2100   38.3890   27.6570 H   0  0  0  0  0  0  0  0  0  0  0  0
   33.8210   38.4330   27.8590 H   0  0  0  0  0  0  0  0  0  0  0  0
   34.4260   37.7510   26.3030 H   0  0  0  0  0  0  0  0  0  0  0  0
   34.1610   35.2380   24.4840 H   0  0  0  0  0  0  0  0  0  0  0  0
   32.5070   35.0780   23.7320 H   0  0  0  0  0  0  0  0  0  0  0  0
   33.7960   33.8250   23.3820 H   0  0  0  0  0  0  0  0  0  0  0  0
   35.8320   36.5240   14.7570 H   0  0  0  0  0  0  0  0  0  0  0  0
   34.4730   35.6900   16.6630 H   0  0  0  0  0  0  0  0  0  0  0  0
   35.3510   37.9010   19.3670 H   0  0  0  0  0  0  0  0  0  0  0  0
   34.7970   39.9740   20.7150 H   0  0  0  0  0  0  0  0  0  0  0  0
   33.1030   40.7540   24.7980 H   0  0  0  0  0  0  0  0  0  0  0  0
   32.3080   39.9990   26.7140 H   0  0  0  0  0  0  0  0  0  0  0  0
   36.0080   39.4010   27.4590 H   0  0  0  0  0  0  0  0  0  0  0  0
   35.5520   39.8940   25.7420 H   0  0  0  0  0  0  0  0  0  0  0  0
   34.1550   41.4180   26.6760 H   0  0  0  0  0  0  0  0  0  0  0  0
   29.6220   36.3240   27.4840 H   0  0  0  0  0  0  0  0  0  0  0  0
  1  2  2  0  0  0  0
  1  8  1  0  0  0  0
  1 30  1  0  0  0  0
  2  9  1  0  0  0  0
  2 10  1  0  0  0  0
  3  4  1  0  0  0  0
  3 26  1  0  0  0  0
  3 31  1  0  0  0  0
  3 32  1  0  0  0  0
  4 29  1  0  0  0  0
  4 33  1  0  0  0  0
  4 34  1  0  0  0  0
  5 26  1  0  0  0  0
  5 27  1  0  0  0  0
  5 35  1  0  0  0  0
  5 36  1  0  0  0  0
  6 21  1  0  0  0  0
  6 37  1  0  0  0  0
  6 38  1  0  0  0  0
  6 39  1  0  0  0  0
  7  8  1  0  0  0  0
  8 12  2  0  0  0  0
 10 11  2  0  0  0  0
 10 40  1  0  0  0  0
 11 12  1  0  0  0  0
 11 41  1  0  0  0  0
 12 13  1  0  0  0  0
 13 14  1  0  0  0  0
 14 15  2  0  0  0  0
 14 19  1  0  0  0  0
 15 16  1  0  0  0  0
 15 42  1  0  0  0  0
 16 17  2  0  0  0  0
 16 22  1  0  0  0  0
 17 18  1  0  0  0  0
 17 43  1  0  0  0  0
 18 24  2  0  0  0  0
 19 20  2  0  0  0  0
 19 21  1  0  0  0  0
 21 22  1  0  0  0  0
 22 23  2  0  0  0  0
 23 24  1  0  0  0  0
 24 25  1  0  0  0  0
 25 26  1  0  0  0  0
 25 44  1  0  0  0  0
 26 45  1  0  0  0  0
 27 28  1  0  0  0  0
 27 46  1  0  0  0  0
 27 47  1  0  0  0  0
 28 48  1  0  0  0  0
 29 49  1  0  0  0  0
M  END
$$$$
