p38a_2r
 OpenBabel02232411163D
Structure written by MMmdl.
 56 59  0  0  0  0  0  0  0  0999 V2000
   38.2370   36.4900   17.2300 C   0  0  0  0  0  0  0  0  0  0  0  0
   34.6720   35.0340   21.3770 C   0  0  0  0  0  0  0  0  0  0  0  0
   37.4490   36.0550   18.2920 C   0  0  0  0  0  0  0  0  0  0  0  0
   34.1500   39.0680   23.9990 C   0  0  0  0  0  0  0  0  0  0  0  0
   34.7180   37.9040   21.5610 C   0  0  0  0  0  0  0  0  0  0  0  0
   35.0420   37.2740   20.3100 C   0  0  0  0  0  0  0  0  0  0  0  0
   37.5940   36.6360   15.9940 C   0  0  0  0  0  0  0  0  0  0  0  0
   36.2430   36.3440   15.7900 C   0  0  0  0  0  0  0  0  0  0  0  0
   35.4750   35.8980   16.8710 C   0  0  0  0  0  0  0  0  0  0  0  0
   34.4480   37.1120   22.7160 C   0  0  0  0  0  0  0  0  0  0  0  0
   34.6730   39.3170   21.7260 C   0  0  0  0  0  0  0  0  0  0  0  0
   35.0480   35.9230   20.2470 C   0  0  0  0  0  0  0  0  0  0  0  0
   36.0830   35.7440   18.1210 C   0  0  0  0  0  0  0  0  0  0  0  0
   37.9850   35.9260   19.4990 F   0  0  0  0  0  0  0  0  0  0  0  0
   35.3470   35.1280   19.1410 O   0  0  0  0  0  0  0  0  0  0  0  0
   34.4030   39.9120   22.8960 N   0  0  0  0  0  0  0  0  0  0  0  0
   34.5510   33.8270   21.3030 O   0  0  0  0  0  0  0  0  0  0  0  0
   34.4580   35.7050   22.6310 N   0  0  0  0  0  0  0  0  0  0  0  0
   34.1790   37.6870   23.9300 N   0  0  0  0  0  0  0  0  0  0  0  0
   33.8310   39.6560   25.1980 N   0  0  0  0  0  0  0  0  0  0  0  0
   39.2940   36.7430   17.3610 H   0  0  0  0  0  0  0  0  0  0  0  0
   35.2820   37.9120   19.4550 H   0  0  0  0  0  0  0  0  0  0  0  0
   35.7770   36.4740   14.8110 H   0  0  0  0  0  0  0  0  0  0  0  0
   34.4090   35.6890   16.7320 H   0  0  0  0  0  0  0  0  0  0  0  0
   34.8600   39.9740   20.8590 H   0  0  0  0  0  0  0  0  0  0  0  0
   33.8460   40.6870   25.2920 H   0  0  0  0  0  0  0  0  0  0  0  0
   38.2990   37.1160   14.9710 F   0  0  0  0  0  0  0  0  0  0  0  0
   33.3990   40.6390   28.2640 C   0  0  0  0  0  0  0  0  0  0  0  0
   32.6100   39.6830   27.3610 C   0  0  0  0  0  0  0  0  0  0  0  0
   33.4970   38.8470   26.4160 C   0  0  0  0  0  0  0  0  0  0  0  0
   34.7660   38.3340   27.1280 C   0  0  0  0  0  0  0  0  0  0  0  0
   35.4440   39.4140   27.9710 C   0  0  0  0  0  0  0  0  0  0  0  0
   34.5140   39.9950   28.9150 O   0  0  0  0  0  0  0  0  0  0  0  0
   32.7780   40.9770   29.1250 H   0  0  0  0  0  0  0  0  0  0  0  0
   33.7860   41.5040   27.6810 H   0  0  0  0  0  0  0  0  0  0  0  0
   31.8780   40.2800   26.7620 H   0  0  0  0  0  0  0  0  0  0  0  0
   32.0290   38.9660   27.9940 H   0  0  0  0  0  0  0  0  0  0  0  0
   32.8980   37.9510   26.0740 H   0  0  0  0  0  0  0  0  0  0  0  0
   34.4600   37.4780   27.7830 H   0  0  0  0  0  0  0  0  0  0  0  0
   35.4900   37.9350   26.3760 H   0  0  0  0  0  0  0  0  0  0  0  0
   36.2190   38.9810   28.6420 H   0  0  0  0  0  0  0  0  0  0  0  0
   35.8550   40.2250   27.3280 H   0  0  0  0  0  0  0  0  0  0  0  0
   34.2470   34.8840   23.8600 C   0  0  0  0  0  0  0  0  0  0  0  0
   34.9690   34.0230   23.8330 H   0  0  0  0  0  0  0  0  0  0  0  0
   34.4950   35.5080   24.7690 H   0  0  0  0  0  0  0  0  0  0  0  0
   32.7920   34.3310   24.0380 C   0  0  0  0  0  0  0  0  0  0  0  0
   32.4950   33.3570   23.0160 O   0  0  0  0  0  0  0  0  0  0  0  0
   33.3250   33.0680   22.5680 H   0  0  0  0  0  0  0  0  0  0  0  0
   31.7180   35.4110   23.9160 C   0  0  0  0  0  0  0  0  0  0  0  0
   31.8140   35.9700   22.9660 H   0  0  0  0  0  0  0  0  0  0  0  0
   30.7000   34.9570   23.9540 H   0  0  0  0  0  0  0  0  0  0  0  0
   31.8080   36.1320   24.7630 H   0  0  0  0  0  0  0  0  0  0  0  0
   32.7260   33.6080   25.3940 C   0  0  0  0  0  0  0  0  0  0  0  0
   31.7230   33.1460   25.5410 H   0  0  0  0  0  0  0  0  0  0  0  0
   33.4900   32.8030   25.4630 H   0  0  0  0  0  0  0  0  0  0  0  0
   32.8970   34.3250   26.2320 H   0  0  0  0  0  0  0  0  0  0  0  0
  1  3  2  0  0  0  0
  1  7  1  0  0  0  0
  1 21  1  0  0  0  0
  2 12  1  0  0  0  0
  2 17  2  0  0  0  0
  2 18  1  0  0  0  0
  3 13  1  0  0  0  0
  3 14  1  0  0  0  0
  4 16  2  0  0  0  0
  4 19  1  0  0  0  0
  4 20  1  0  0  0  0
  5  6  1  0  0  0  0
  5 10  1  0  0  0  0
  5 11  2  0  0  0  0
  6 12  2  0  0  0  0
  6 22  1  0  0  0  0
  7  8  2  0  0  0  0
  7 27  1  0  0  0  0
  8  9  1  0  0  0  0
  8 23  1  0  0  0  0
  9 13  2  0  0  0  0
  9 24  1  0  0  0  0
 10 18  1  0  0  0  0
 10 19  2  0  0  0  0
 11 16  1  0  0  0  0
 11 25  1  0  0  0  0
 12 15  1  0  0  0  0
 13 15  1  0  0  0  0
 18 43  1  0  0  0  0
 20 26  1  0  0  0  0
 20 30  1  0  0  0  0
 28 29  1  0  0  0  0
 28 33  1  0  0  0  0
 28 34  1  0  0  0  0
 28 35  1  0  0  0  0
 29 30  1  0  0  0  0
 29 36  1  0  0  0  0
 29 37  1  0  0  0  0
 30 31  1  0  0  0  0
 30 38  1  0  0  0  0
 31 32  1  0  0  0  0
 31 39  1  0  0  0  0
 31 40  1  0  0  0  0
 32 33  1  0  0  0  0
 32 41  1  0  0  0  0
 32 42  1  0  0  0  0
 43 44  1  0  0  0  0
 43 45  1  0  0  0  0
 43 46  1  0  0  0  0
 46 47  1  0  0  0  0
 46 49  1  0  0  0  0
 46 53  1  0  0  0  0
 47 48  1  0  0  0  0
 49 50  1  0  0  0  0
 49 51  1  0  0  0  0
 49 52  1  0  0  0  0
 53 54  1  0  0  0  0
 53 55  1  0  0  0  0
 53 56  1  0  0  0  0
M  END
$$$$
