18624-1
 OpenBabel02232411163D
Structure written by MMmdl.
 38 39  0  0  0  0  0  0  0  0999 V2000
   23.7960   12.6930   30.3550 C   0  0  0  0  0  0  0  0  0  0  0  0
   23.3650   11.2410   30.4360 C   0  0  0  0  0  0  0  0  0  0  0  0
   22.1270   11.3050   31.2550 O   0  0  0  0  0  0  0  0  0  0  0  0
   21.5100   10.1530   31.5870 C   0  0  0  0  0  0  0  0  0  0  0  0
   22.0000    8.9740   31.1350 N   0  0  0  0  0  0  0  0  0  0  0  0
   21.2900    7.8240   31.4490 C   0  0  0  0  0  0  0  0  0  0  0  0
   20.1410    7.8390   32.2320 C   0  0  0  0  0  0  0  0  0  0  0  0
   19.6380    9.0800   32.7090 C   0  0  0  0  0  0  0  0  0  0  0  0
   18.4930    9.1070   33.4630 N   0  0  0  0  0  0  0  0  0  0  0  0
   20.3270   10.2890   32.3740 C   0  0  0  0  0  0  0  0  0  0  0  0
   19.8920   11.5810   32.7370 C   0  0  0  0  0  0  0  0  0  0  0  0
   19.5830   12.6700   32.9910 N   0  0  0  0  0  0  0  0  0  0  0  0
   21.8700    6.6750   30.8590 N   0  0  0  0  0  0  0  0  0  0  0  0
   21.3410    5.3580   30.8440 C   0  0  0  0  0  0  0  0  0  0  0  0
   20.3160    5.0600   31.4190 O   0  0  0  0  0  0  0  0  0  0  0  0
   22.1560    4.3940   29.9950 C   0  0  0  0  0  0  0  0  0  0  0  0
   23.4400    3.9910   30.6710 C   0  0  0  0  0  0  0  0  0  0  0  0
   24.6140    4.7320   30.4580 C   0  0  0  0  0  0  0  0  0  0  0  0
   25.7990    4.3690   31.1040 C   0  0  0  0  0  0  0  0  0  0  0  0
   25.8240    3.2640   31.9610 C   0  0  0  0  0  0  0  0  0  0  0  0
   24.6620    2.5130   32.1580 C   0  0  0  0  0  0  0  0  0  0  0  0
   23.4750    2.8680   31.5110 C   0  0  0  0  0  0  0  0  0  0  0  0
   24.0540   13.0980   31.3590 H   0  0  0  0  0  0  0  0  0  0  0  0
   22.9920   13.3240   29.9070 H   0  0  0  0  0  0  0  0  0  0  0  0
   24.6990   12.7620   29.6980 H   0  0  0  0  0  0  0  0  0  0  0  0
   23.0880   10.8220   29.4430 H   0  0  0  0  0  0  0  0  0  0  0  0
   24.1040   10.6040   30.9700 H   0  0  0  0  0  0  0  0  0  0  0  0
   19.6070    6.9170   32.4710 H   0  0  0  0  0  0  0  0  0  0  0  0
   18.0010    8.2320   33.7260 H   0  0  0  0  0  0  0  0  0  0  0  0
   18.0850    9.9880   33.7770 H   0  0  0  0  0  0  0  0  0  0  0  0
   22.7600    6.8490   30.3490 H   0  0  0  0  0  0  0  0  0  0  0  0
   21.5320    3.4820   29.7980 H   0  0  0  0  0  0  0  0  0  0  0  0
   22.3820    4.8720   29.0050 H   0  0  0  0  0  0  0  0  0  0  0  0
   24.6230    5.5900   29.7820 H   0  0  0  0  0  0  0  0  0  0  0  0
   26.7090    4.9510   30.9340 H   0  0  0  0  0  0  0  0  0  0  0  0
   26.7520    2.9860   32.4680 H   0  0  0  0  0  0  0  0  0  0  0  0
   24.6840    1.6390   32.8170 H   0  0  0  0  0  0  0  0  0  0  0  0
   22.5830    2.2570   31.6620 H   0  0  0  0  0  0  0  0  0  0  0  0
  1  2  1  0  0  0  0
  1 23  1  0  0  0  0
  1 24  1  0  0  0  0
  1 25  1  0  0  0  0
  2  3  1  0  0  0  0
  2 26  1  0  0  0  0
  2 27  1  0  0  0  0
  3  4  1  0  0  0  0
  4 10  2  0  0  0  0
  4  5  1  0  0  0  0
  5  6  2  0  0  0  0
  6  7  1  0  0  0  0
  6 13  1  0  0  0  0
  7  8  2  0  0  0  0
  7 28  1  0  0  0  0
  8  9  1  0  0  0  0
  8 10  1  0  0  0  0
  9 29  1  0  0  0  0
  9 30  1  0  0  0  0
 10 11  1  0  0  0  0
 11 12  3  0  0  0  0
 13 14  1  0  0  0  0
 13 31  1  0  0  0  0
 14 15  2  0  0  0  0
 14 16  1  0  0  0  0
 16 17  1  0  0  0  0
 16 32  1  0  0  0  0
 16 33  1  0  0  0  0
 17 22  2  0  0  0  0
 17 18  1  0  0  0  0
 18 19  2  0  0  0  0
 18 34  1  0  0  0  0
 19 20  1  0  0  0  0
 19 35  1  0  0  0  0
 20 21  2  0  0  0  0
 20 36  1  0  0  0  0
 21 22  1  0  0  0  0
 21 37  1  0  0  0  0
 22 38  1  0  0  0  0
M  END
$$$$
