18625-1
 OpenBabel02232411163D
Structure written by MMmdl.
 38 39  0  0  0  0  0  0  0  0999 V2000
   23.2600   10.8300   29.0190 C   0  0  0  0  0  0  0  0  0  0  0  0
   23.5200   11.0610   30.4920 C   0  0  0  0  0  0  0  0  0  0  0  0
   22.2490   11.1440   31.2420 O   0  0  0  0  0  0  0  0  0  0  0  0
   21.5830   10.0150   31.5660 C   0  0  0  0  0  0  0  0  0  0  0  0
   22.0470    8.8130   31.1490 N   0  0  0  0  0  0  0  0  0  0  0  0
   21.2970    7.6940   31.4720 C   0  0  0  0  0  0  0  0  0  0  0  0
   20.1310    7.7600   32.2280 C   0  0  0  0  0  0  0  0  0  0  0  0
   19.6590    9.0240   32.6760 C   0  0  0  0  0  0  0  0  0  0  0  0
   18.5100    9.0970   33.4230 N   0  0  0  0  0  0  0  0  0  0  0  0
   20.3890   10.2040   32.3270 C   0  0  0  0  0  0  0  0  0  0  0  0
   19.9810   11.5150   32.6540 C   0  0  0  0  0  0  0  0  0  0  0  0
   19.6910   12.6160   32.8750 N   0  0  0  0  0  0  0  0  0  0  0  0
   21.8670    6.5070   30.9450 N   0  0  0  0  0  0  0  0  0  0  0  0
   21.2700    5.2260   30.9480 C   0  0  0  0  0  0  0  0  0  0  0  0
   20.1510    5.0310   31.3730 O   0  0  0  0  0  0  0  0  0  0  0  0
   22.1250    4.1370   30.3180 C   0  0  0  0  0  0  0  0  0  0  0  0
   23.4580    3.9660   30.9860 C   0  0  0  0  0  0  0  0  0  0  0  0
   24.6540    4.4420   30.4280 C   0  0  0  0  0  0  0  0  0  0  0  0
   24.6440    5.2650   28.9100 Cl  0  0  0  0  0  0  0  0  0  0  0  0
   25.8910    4.2520   31.0500 C   0  0  0  0  0  0  0  0  0  0  0  0
   25.9430    3.5630   32.2630 C   0  0  0  0  0  0  0  0  0  0  0  0
   24.7640    3.0780   32.8420 C   0  0  0  0  0  0  0  0  0  0  0  0
   23.5360    3.2760   32.2090 C   0  0  0  0  0  0  0  0  0  0  0  0
   24.2070   10.9950   28.4480 H   0  0  0  0  0  0  0  0  0  0  0  0
   22.4940   11.5380   28.6270 H   0  0  0  0  0  0  0  0  0  0  0  0
   22.9150    9.7870   28.8260 H   0  0  0  0  0  0  0  0  0  0  0  0
   23.9070   12.0900   30.6960 H   0  0  0  0  0  0  0  0  0  0  0  0
   24.1650   10.2730   30.9410 H   0  0  0  0  0  0  0  0  0  0  0  0
   19.5620    6.8610   32.4740 H   0  0  0  0  0  0  0  0  0  0  0  0
   18.1270    9.9930   33.7240 H   0  0  0  0  0  0  0  0  0  0  0  0
   17.9860    8.2400   33.6870 H   0  0  0  0  0  0  0  0  0  0  0  0
   22.7910    6.6220   30.4850 H   0  0  0  0  0  0  0  0  0  0  0  0
   21.5690    3.1610   30.3950 H   0  0  0  0  0  0  0  0  0  0  0  0
   22.2380    4.3710   29.2270 H   0  0  0  0  0  0  0  0  0  0  0  0
   26.8110    4.6310   30.5930 H   0  0  0  0  0  0  0  0  0  0  0  0
   26.9050    3.3980   32.7570 H   0  0  0  0  0  0  0  0  0  0  0  0
   24.8100    2.5320   33.7890 H   0  0  0  0  0  0  0  0  0  0  0  0
   22.6310    2.8680   32.6660 H   0  0  0  0  0  0  0  0  0  0  0  0
  1  2  1  0  0  0  0
  1 24  1  0  0  0  0
  1 25  1  0  0  0  0
  1 26  1  0  0  0  0
  2  3  1  0  0  0  0
  2 27  1  0  0  0  0
  2 28  1  0  0  0  0
  3  4  1  0  0  0  0
  4 10  2  0  0  0  0
  4  5  1  0  0  0  0
  5  6  2  0  0  0  0
  6  7  1  0  0  0  0
  6 13  1  0  0  0  0
  7  8  2  0  0  0  0
  7 29  1  0  0  0  0
  8  9  1  0  0  0  0
  8 10  1  0  0  0  0
  9 30  1  0  0  0  0
  9 31  1  0  0  0  0
 10 11  1  0  0  0  0
 11 12  3  0  0  0  0
 13 14  1  0  0  0  0
 13 32  1  0  0  0  0
 14 15  2  0  0  0  0
 14 16  1  0  0  0  0
 16 17  1  0  0  0  0
 16 33  1  0  0  0  0
 16 34  1  0  0  0  0
 17 23  2  0  0  0  0
 17 18  1  0  0  0  0
 18 19  1  0  0  0  0
 18 20  2  0  0  0  0
 20 21  1  0  0  0  0
 20 35  1  0  0  0  0
 21 22  2  0  0  0  0
 21 36  1  0  0  0  0
 22 23  1  0  0  0  0
 22 37  1  0  0  0  0
 23 38  1  0  0  0  0
M  END
$$$$
