1b
                    3D
 Schrodinger Suite 2022-3.
 52 54  0  0  1  0  0  0  0  0999 V2000
   16.1030  -16.0130   22.9980 N   0  3  0  0  0  0  0  0  0  0  0  0
   17.4400  -15.2520   23.0700 C   0  0  1  0  0  0  0  0  0  0  0  0
   17.1920  -13.8180   22.5330 C   0  0  0  0  0  0  0  0  0  0  0  0
   16.2190  -13.1670   22.9070 O   0  0  0  0  0  0  0  0  0  0  0  0
   17.9330  -15.2390   24.5300 C   0  0  0  0  0  0  0  0  0  0  0  0
   19.3670  -14.7800   24.6500 C   0  0  0  0  0  0  0  0  0  0  0  0
   20.4050  -15.5480   24.1000 C   0  0  0  0  0  0  0  0  0  0  0  0
   19.6760  -13.6110   25.3550 C   0  0  0  0  0  0  0  0  0  0  0  0
   21.7310  -15.1330   24.2400 C   0  0  0  0  0  0  0  0  0  0  0  0
   21.0040  -13.1880   25.4810 C   0  0  0  0  0  0  0  0  0  0  0  0
   22.0350  -13.9500   24.9250 C   0  0  0  0  0  0  0  0  0  0  0  0
   18.0820  -13.2940   21.6350 N   0  0  0  0  0  0  0  0  0  0  0  0
   17.8590  -11.9440   21.0250 C   0  0  2  0  0  0  0  0  0  0  0  0
   16.4220  -11.8420   20.4450 C   0  0  0  0  0  0  0  0  0  0  0  0
   15.9110  -12.7320   19.7810 O   0  0  0  0  0  0  0  0  0  0  0  0
   18.9230  -11.8300   19.9130 C   0  0  0  0  0  0  0  0  0  0  0  0
   19.9710  -12.9280   20.1770 C   0  0  0  0  0  0  0  0  0  0  0  0
   19.2890  -13.9760   21.0740 C   0  0  0  0  0  0  0  0  0  0  0  0
   15.7980  -10.6160   20.6360 N   0  0  0  0  0  0  0  0  0  0  0  0
   14.3760  -10.4070   20.2510 C   0  0  0  0  0  0  0  0  0  0  0  0
   13.4390  -10.3600   21.4370 C   0  0  0  0  0  0  0  0  0  0  0  0
   13.4860   -9.2630   22.3100 C   0  0  0  0  0  0  0  0  0  0  0  0
   12.5850   -9.2010   23.3730 C   0  0  0  0  0  0  0  0  0  0  0  0
   11.6100  -10.1820   23.5710 C   0  0  0  0  0  0  0  0  0  0  0  0
   11.5730  -11.2700   22.6940 C   0  0  0  0  0  0  0  0  0  0  0  0
   12.4870  -11.3690   21.6400 C   0  0  0  0  0  0  0  0  0  0  0  0
   14.2180   -8.4730   22.1510 H   0  0  0  0  0  0  0  0  0  0  0  0
   12.7190   -7.8990   24.4930 Cl  0  0  0  0  0  0  0  0  0  0  0  0
   10.8820  -10.1110   24.3860 H   0  0  0  0  0  0  0  0  0  0  0  0
   10.8210  -12.0540   22.8350 H   0  0  0  0  0  0  0  0  0  0  0  0
   12.4460  -12.2370   20.9780 H   0  0  0  0  0  0  0  0  0  0  0  0
   18.8820  -13.0400   25.8280 H   0  0  0  0  0  0  0  0  0  0  0  0
   21.2140  -12.2590   26.0180 H   0  0  0  0  0  0  0  0  0  0  0  0
   22.5280  -15.7470   23.8090 H   0  0  0  0  0  0  0  0  0  0  0  0
   23.0780  -13.6360   25.0250 H   0  0  0  0  0  0  0  0  0  0  0  0
   20.1770  -16.4760   23.5700 H   0  0  0  0  0  0  0  0  0  0  0  0
   16.2220  -16.9720   23.4410 H   0  0  0  0  0  0  0  0  0  0  0  0
   15.3380  -15.4660   23.5120 H   0  0  0  0  0  0  0  0  0  0  0  0
   15.8190  -16.1600   21.9880 H   0  0  0  0  0  0  0  0  0  0  0  0
   18.1650  -15.8420   22.4360 H   0  0  0  0  0  0  0  0  0  0  0  0
   17.8830  -16.2890   24.9380 H   0  0  0  0  0  0  0  0  0  0  0  0
   17.2600  -14.5960   25.1510 H   0  0  0  0  0  0  0  0  0  0  0  0
   18.0350  -11.1730   21.8220 H   0  0  0  0  0  0  0  0  0  0  0  0
   19.4040  -10.8320   19.9580 H   0  0  0  0  0  0  0  0  0  0  0  0
   18.4680  -11.9910   18.9070 H   0  0  0  0  0  0  0  0  0  0  0  0
   20.8650  -12.5100   20.6950 H   0  0  0  0  0  0  0  0  0  0  0  0
   20.3080  -13.4020   19.2230 H   0  0  0  0  0  0  0  0  0  0  0  0
   18.9810  -14.8720   20.4750 H   0  0  0  0  0  0  0  0  0  0  0  0
   19.9680  -14.2930   21.9070 H   0  0  0  0  0  0  0  0  0  0  0  0
   16.2010   -9.9170   21.2810 H   0  0  0  0  0  0  0  0  0  0  0  0
   14.0660  -11.2200   19.5350 H   0  0  0  0  0  0  0  0  0  0  0  0
   14.3190   -9.4190   19.7120 H   0  0  0  0  0  0  0  0  0  0  0  0
  1  2  1  0  0  0  0
  1 37  1  0  0  0  0
  1 38  1  0  0  0  0
  1 39  1  0  0  0  0
  2  3  1  0  0  0  0
  2  5  1  0  0  0  0
  2 40  1  0  0  0  0
  3  4  2  0  0  0  0
  3 12  1  0  0  0  0
  5  6  1  0  0  0  0
  5 41  1  0  0  0  0
  5 42  1  0  0  0  0
  6  7  2  0  0  0  0
  6  8  1  0  0  0  0
  7  9  1  0  0  0  0
  7 36  1  0  0  0  0
  8 10  2  0  0  0  0
  8 32  1  0  0  0  0
  9 11  2  0  0  0  0
  9 34  1  0  0  0  0
 10 11  1  0  0  0  0
 10 33  1  0  0  0  0
 11 35  1  0  0  0  0
 12 13  1  0  0  0  0
 12 18  1  0  0  0  0
 13 14  1  0  0  0  0
 13 16  1  0  0  0  0
 13 43  1  0  0  0  0
 14 15  2  0  0  0  0
 14 19  1  0  0  0  0
 16 17  1  0  0  0  0
 16 44  1  0  0  0  0
 16 45  1  0  0  0  0
 17 18  1  0  0  0  0
 17 46  1  0  0  0  0
 17 47  1  0  0  0  0
 18 48  1  0  0  0  0
 18 49  1  0  0  0  0
 19 20  1  0  0  0  0
 19 50  1  0  0  0  0
 20 21  1  0  0  0  0
 20 51  1  0  0  0  0
 20 52  1  0  0  0  0
 21 22  2  0  0  0  0
 21 26  1  0  0  0  0
 22 23  1  0  0  0  0
 22 27  1  0  0  0  0
 23 24  2  0  0  0  0
 23 28  1  0  0  0  0
 24 25  1  0  0  0  0
 24 29  1  0  0  0  0
 25 26  2  0  0  0  0
 25 30  1  0  0  0  0
 26 31  1  0  0  0  0
M  CHG  1   1   1
M  END
$$$$
