p38a_2r
 OpenBabel02232411163D
Structure written by MMmdl.
 56 59  0  0  0  0  0  0  0  0999 V2000
   36.3070   35.8120   16.0940 C   0  0  0  0  0  0  0  0  0  0  0  0
   34.3160   34.9930   21.6610 C   0  0  0  0  0  0  0  0  0  0  0  0
   35.5240   35.4250   17.1770 C   0  0  0  0  0  0  0  0  0  0  0  0
   34.0730   39.1010   24.2230 C   0  0  0  0  0  0  0  0  0  0  0  0
   34.6160   37.8580   21.8220 C   0  0  0  0  0  0  0  0  0  0  0  0
   34.9700   37.1840   20.6030 C   0  0  0  0  0  0  0  0  0  0  0  0
   37.5920   36.2850   16.3910 C   0  0  0  0  0  0  0  0  0  0  0  0
   38.1130   36.3410   17.6860 C   0  0  0  0  0  0  0  0  0  0  0  0
   37.2980   35.9660   18.7600 C   0  0  0  0  0  0  0  0  0  0  0  0
   34.1530   37.1150   22.9500 C   0  0  0  0  0  0  0  0  0  0  0  0
   34.7220   39.2660   21.9760 C   0  0  0  0  0  0  0  0  0  0  0  0
   34.8500   35.8380   20.5530 C   0  0  0  0  0  0  0  0  0  0  0  0
   36.0000   35.5180   18.5030 C   0  0  0  0  0  0  0  0  0  0  0  0
   34.3050   34.9380   16.9880 F   0  0  0  0  0  0  0  0  0  0  0  0
   35.1320   35.0030   19.4710 O   0  0  0  0  0  0  0  0  0  0  0  0
   34.4560   39.9030   23.1280 N   0  0  0  0  0  0  0  0  0  0  0  0
   34.2060   33.7920   21.6140 O   0  0  0  0  0  0  0  0  0  0  0  0
   33.9550   35.7270   22.8540 N   0  0  0  0  0  0  0  0  0  0  0  0
   33.9050   37.7300   24.1510 N   0  0  0  0  0  0  0  0  0  0  0  0
   33.8460   39.7260   25.4240 N   0  0  0  0  0  0  0  0  0  0  0  0
   35.9340   35.7800   15.0670 H   0  0  0  0  0  0  0  0  0  0  0  0
   35.3390   37.7890   19.7700 H   0  0  0  0  0  0  0  0  0  0  0  0
   39.1310   36.7030   17.8600 H   0  0  0  0  0  0  0  0  0  0  0  0
   37.6720   36.0540   19.7830 H   0  0  0  0  0  0  0  0  0  0  0  0
   35.0290   39.8890   21.1190 H   0  0  0  0  0  0  0  0  0  0  0  0
   33.9190   40.7580   25.4890 H   0  0  0  0  0  0  0  0  0  0  0  0
   38.3410   36.7340   15.3860 F   0  0  0  0  0  0  0  0  0  0  0  0
   33.5850   40.8180   28.4360 C   0  0  0  0  0  0  0  0  0  0  0  0
   32.6610   39.9260   27.5970 C   0  0  0  0  0  0  0  0  0  0  0  0
   33.4230   38.9760   26.6500 C   0  0  0  0  0  0  0  0  0  0  0  0
   34.6300   38.3250   27.3580 C   0  0  0  0  0  0  0  0  0  0  0  0
   35.4590   39.3390   28.1480 C   0  0  0  0  0  0  0  0  0  0  0  0
   34.6340   40.0700   29.0870 O   0  0  0  0  0  0  0  0  0  0  0  0
   33.0350   41.2620   29.2970 H   0  0  0  0  0  0  0  0  0  0  0  0
   34.0530   41.6060   27.8030 H   0  0  0  0  0  0  0  0  0  0  0  0
   31.9760   40.5780   27.0030 H   0  0  0  0  0  0  0  0  0  0  0  0
   32.0340   39.2940   28.2740 H   0  0  0  0  0  0  0  0  0  0  0  0
   32.7160   38.1570   26.3270 H   0  0  0  0  0  0  0  0  0  0  0  0
   34.2300   37.5390   28.0490 H   0  0  0  0  0  0  0  0  0  0  0  0
   35.2800   37.8130   26.6080 H   0  0  0  0  0  0  0  0  0  0  0  0
   36.1870   38.8330   28.8220 H   0  0  0  0  0  0  0  0  0  0  0  0
   35.9550   40.0660   27.4670 H   0  0  0  0  0  0  0  0  0  0  0  0
   33.3380   34.9860   23.9930 C   0  0  0  0  0  0  0  0  0  0  0  0
   33.7760   33.9510   24.0190 H   0  0  0  0  0  0  0  0  0  0  0  0
   33.6040   35.4970   24.9650 H   0  0  0  0  0  0  0  0  0  0  0  0
   31.7780   34.8910   23.9050 C   0  0  0  0  0  0  0  0  0  0  0  0
   31.4670   34.4670   22.5570 O   0  0  0  0  0  0  0  0  0  0  0  0
   30.7660   35.0520   22.1860 H   0  0  0  0  0  0  0  0  0  0  0  0
   31.0760   36.2190   24.2040 C   0  0  0  0  0  0  0  0  0  0  0  0
   31.4430   37.0360   23.5510 H   0  0  0  0  0  0  0  0  0  0  0  0
   29.9750   36.1160   24.0720 H   0  0  0  0  0  0  0  0  0  0  0  0
   31.2610   36.5240   25.2620 H   0  0  0  0  0  0  0  0  0  0  0  0
   31.2870   33.7830   24.8490 C   0  0  0  0  0  0  0  0  0  0  0  0
   30.1730   33.7300   24.8310 H   0  0  0  0  0  0  0  0  0  0  0  0
   31.6910   32.7880   24.5630 H   0  0  0  0  0  0  0  0  0  0  0  0
   31.6000   34.0030   25.8990 H   0  0  0  0  0  0  0  0  0  0  0  0
  1  3  2  0  0  0  0
  1  7  1  0  0  0  0
  1 21  1  0  0  0  0
  2 12  1  0  0  0  0
  2 17  2  0  0  0  0
  2 18  1  0  0  0  0
  3 13  1  0  0  0  0
  3 14  1  0  0  0  0
  4 16  2  0  0  0  0
  4 19  1  0  0  0  0
  4 20  1  0  0  0  0
  5  6  1  0  0  0  0
  5 10  1  0  0  0  0
  5 11  2  0  0  0  0
  6 12  2  0  0  0  0
  6 22  1  0  0  0  0
  7  8  2  0  0  0  0
  7 27  1  0  0  0  0
  8  9  1  0  0  0  0
  8 23  1  0  0  0  0
  9 13  2  0  0  0  0
  9 24  1  0  0  0  0
 10 18  1  0  0  0  0
 10 19  2  0  0  0  0
 11 16  1  0  0  0  0
 11 25  1  0  0  0  0
 12 15  1  0  0  0  0
 13 15  1  0  0  0  0
 18 43  1  0  0  0  0
 20 26  1  0  0  0  0
 20 30  1  0  0  0  0
 28 29  1  0  0  0  0
 28 33  1  0  0  0  0
 28 34  1  0  0  0  0
 28 35  1  0  0  0  0
 29 30  1  0  0  0  0
 29 36  1  0  0  0  0
 29 37  1  0  0  0  0
 30 31  1  0  0  0  0
 30 38  1  0  0  0  0
 31 32  1  0  0  0  0
 31 39  1  0  0  0  0
 31 40  1  0  0  0  0
 32 33  1  0  0  0  0
 32 41  1  0  0  0  0
 32 42  1  0  0  0  0
 43 44  1  0  0  0  0
 43 45  1  0  0  0  0
 43 46  1  0  0  0  0
 46 47  1  0  0  0  0
 46 49  1  0  0  0  0
 46 53  1  0  0  0  0
 47 48  1  0  0  0  0
 49 50  1  0  0  0  0
 49 51  1  0  0  0  0
 49 52  1  0  0  0  0
 53 54  1  0  0  0  0
 53 55  1  0  0  0  0
 53 56  1  0  0  0  0
M  END
$$$$
