18637-1
 OpenBabel02232411163D
Structure written by MMmdl.
 53 54  0  0  0  0  0  0  0  0999 V2000
   23.2050   10.8180   29.0730 C   0  0  0  0  0  0  0  0  0  0  0  0
   23.4780   11.0440   30.5460 C   0  0  0  0  0  0  0  0  0  0  0  0
   22.2120   11.1490   31.3010 O   0  0  0  0  0  0  0  0  0  0  0  0
   21.5450   10.0210   31.6350 C   0  0  0  0  0  0  0  0  0  0  0  0
   21.9970    8.8260   31.1910 N   0  0  0  0  0  0  0  0  0  0  0  0
   21.2380    7.7030   31.4900 C   0  0  0  0  0  0  0  0  0  0  0  0
   20.0830    7.7600   32.2630 C   0  0  0  0  0  0  0  0  0  0  0  0
   19.6330    9.0160   32.7490 C   0  0  0  0  0  0  0  0  0  0  0  0
   18.4910    9.0750   33.5080 N   0  0  0  0  0  0  0  0  0  0  0  0
   20.3690   10.2010   32.4220 C   0  0  0  0  0  0  0  0  0  0  0  0
   19.9840   11.5060   32.7940 C   0  0  0  0  0  0  0  0  0  0  0  0
   19.7180   12.6040   33.0570 N   0  0  0  0  0  0  0  0  0  0  0  0
   21.7810    6.5430   30.9010 N   0  0  0  0  0  0  0  0  0  0  0  0
   21.1560    5.2780   30.7880 C   0  0  0  0  0  0  0  0  0  0  0  0
   20.0660    5.0470   31.2670 O   0  0  0  0  0  0  0  0  0  0  0  0
   21.9520    4.2880   29.9490 C   0  0  0  0  0  0  0  0  0  0  0  0
   23.2780    3.9450   30.5590 C   0  0  0  0  0  0  0  0  0  0  0  0
   24.4170    4.7520   30.3430 C   0  0  0  0  0  0  0  0  0  0  0  0
   24.1740    5.8280   29.5060 O   0  0  0  0  0  0  0  0  0  0  0  0
   25.1680    6.8870   29.4260 C   0  0  0  0  0  0  0  0  0  0  0  0
   25.6630    4.4640   30.9170 C   0  0  0  0  0  0  0  0  0  0  0  0
   25.7990    3.3260   31.7180 C   0  0  0  0  0  0  0  0  0  0  0  0
   24.6490    2.5050   31.9400 C   0  0  0  0  0  0  0  0  0  0  0  0
   23.4200    2.8070   31.3630 C   0  0  0  0  0  0  0  0  0  0  0  0
   24.8790    1.4610   32.8240 O   0  0  0  0  0  0  0  0  0  0  0  0
   24.0550    0.2760   32.6730 C   0  0  0  0  0  0  0  0  0  0  0  0
   27.0150    2.9620   32.3610 N   0  0  0  0  0  0  0  0  0  0  0  0
   28.3230    3.3010   31.9310 C   0  0  0  0  0  0  0  0  0  0  0  0
   28.5060    3.9750   30.9310 O   0  0  0  0  0  0  0  0  0  0  0  0
   29.4060    2.7590   32.8110 C   0  0  0  0  0  0  0  0  0  0  0  0
   22.7880    9.8000   28.8920 H   0  0  0  0  0  0  0  0  0  0  0  0
   22.4910   11.5730   28.6740 H   0  0  0  0  0  0  0  0  0  0  0  0
   24.1630   10.9110   28.5040 H   0  0  0  0  0  0  0  0  0  0  0  0
   23.8900   12.0630   30.7470 H   0  0  0  0  0  0  0  0  0  0  0  0
   24.1100   10.2400   30.9880 H   0  0  0  0  0  0  0  0  0  0  0  0
   19.5060    6.8600   32.4840 H   0  0  0  0  0  0  0  0  0  0  0  0
   18.1110    9.9650   33.8290 H   0  0  0  0  0  0  0  0  0  0  0  0
   17.9860    8.2100   33.7800 H   0  0  0  0  0  0  0  0  0  0  0  0
   22.7060    6.6780   30.4240 H   0  0  0  0  0  0  0  0  0  0  0  0
   21.3440    3.3560   29.8220 H   0  0  0  0  0  0  0  0  0  0  0  0
   22.1160    4.7480   28.9370 H   0  0  0  0  0  0  0  0  0  0  0  0
   26.0610    6.5140   28.8840 H   0  0  0  0  0  0  0  0  0  0  0  0
   25.4110    7.2680   30.4400 H   0  0  0  0  0  0  0  0  0  0  0  0
   24.6180    7.6530   28.8310 H   0  0  0  0  0  0  0  0  0  0  0  0
   26.5230    5.1150   30.7380 H   0  0  0  0  0  0  0  0  0  0  0  0
   22.5650    2.1500   31.5400 H   0  0  0  0  0  0  0  0  0  0  0  0
   24.5940   -0.4540   33.3220 H   0  0  0  0  0  0  0  0  0  0  0  0
   23.0360    0.4820   33.0660 H   0  0  0  0  0  0  0  0  0  0  0  0
   24.0430   -0.0560   31.6140 H   0  0  0  0  0  0  0  0  0  0  0  0
   26.9240    2.2530   33.1120 H   0  0  0  0  0  0  0  0  0  0  0  0
   30.4110    3.1340   32.4890 H   0  0  0  0  0  0  0  0  0  0  0  0
   29.4380    1.6380   32.7780 H   0  0  0  0  0  0  0  0  0  0  0  0
   29.2610    3.0590   33.8820 H   0  0  0  0  0  0  0  0  0  0  0  0
  1  2  1  0  0  0  0
  1 31  1  0  0  0  0
  1 32  1  0  0  0  0
  1 33  1  0  0  0  0
  2  3  1  0  0  0  0
  2 34  1  0  0  0  0
  2 35  1  0  0  0  0
  3  4  1  0  0  0  0
  4 10  2  0  0  0  0
  4  5  1  0  0  0  0
  5  6  2  0  0  0  0
  6  7  1  0  0  0  0
  6 13  1  0  0  0  0
  7  8  2  0  0  0  0
  7 36  1  0  0  0  0
  8  9  1  0  0  0  0
  8 10  1  0  0  0  0
  9 37  1  0  0  0  0
  9 38  1  0  0  0  0
 10 11  1  0  0  0  0
 11 12  3  0  0  0  0
 13 14  1  0  0  0  0
 13 39  1  0  0  0  0
 14 15  2  0  0  0  0
 14 16  1  0  0  0  0
 16 17  1  0  0  0  0
 16 40  1  0  0  0  0
 16 41  1  0  0  0  0
 17 24  2  0  0  0  0
 17 18  1  0  0  0  0
 18 19  1  0  0  0  0
 18 21  2  0  0  0  0
 19 20  1  0  0  0  0
 20 42  1  0  0  0  0
 20 43  1  0  0  0  0
 20 44  1  0  0  0  0
 21 22  1  0  0  0  0
 21 45  1  0  0  0  0
 22 23  2  0  0  0  0
 22 27  1  0  0  0  0
 23 24  1  0  0  0  0
 23 25  1  0  0  0  0
 24 46  1  0  0  0  0
 25 26  1  0  0  0  0
 26 47  1  0  0  0  0
 26 48  1  0  0  0  0
 26 49  1  0  0  0  0
 27 28  1  0  0  0  0
 27 50  1  0  0  0  0
 28 29  2  0  0  0  0
 28 30  1  0  0  0  0
 30 51  1  0  0  0  0
 30 52  1  0  0  0  0
 30 53  1  0  0  0  0
M  END
$$$$
