CAT-13a
 OpenBabel02232411143D
Structure written by MMmdl.
 39 41  0  0  1  0  0  0  0  0999 V2000
   11.7990   -2.2840    1.1530 C   0  0  0  0  0  0  0  0  0  0  0  0
   13.1270   -2.5450    0.5600 N   0  0  0  0  0  0  0  0  0  0  0  0
   14.3010   -2.4920    1.3130 C   0  0  0  0  0  0  0  0  0  0  0  0
   14.3850   -2.5260    2.6740 N   0  0  0  0  0  0  0  0  0  0  0  0
   15.4100   -2.4800    0.4660 N   0  3  0  0  0  0  0  0  0  0  0  0
   14.9990   -2.7630   -0.9640 C   0  0  2  0  0  0  0  0  0  0  0  0
   15.3540   -4.1970   -1.3190 C   0  0  0  0  0  0  0  0  0  0  0  0
   15.5190   -1.6740   -1.8820 C   0  0  0  0  0  0  0  0  0  0  0  0
   16.2020   -1.9680   -3.0680 C   0  0  0  0  0  0  0  0  0  0  0  0
   16.6050   -0.9260   -3.9100 C   0  0  0  0  0  0  0  0  0  0  0  0
   16.3440    0.4050   -3.5790 C   0  0  0  0  0  0  0  0  0  0  0  0
   15.6780    0.7160   -2.3800 C   0  0  0  0  0  0  0  0  0  0  0  0
   15.4030    2.1140   -1.9770 C   0  0  0  0  0  0  0  0  0  0  0  0
   14.9890    3.0760   -2.9120 C   0  0  0  0  0  0  0  0  0  0  0  0
   14.6680    4.3730   -2.4960 C   0  0  0  0  0  0  0  0  0  0  0  0
   14.7410    4.7280   -1.1450 C   0  0  0  0  0  0  0  0  0  0  0  0
   15.1600    3.7630   -0.2260 C   0  0  0  0  0  0  0  0  0  0  0  0
   15.1850    4.1340    1.4580 Cl  0  0  0  0  0  0  0  0  0  0  0  0
   15.5160    2.4740   -0.6230 C   0  0  0  0  0  0  0  0  0  0  0  0
   15.2570   -0.3350   -1.5510 C   0  0  0  0  0  0  0  0  0  0  0  0
   13.4380   -2.6490   -0.8800 C   0  0  0  0  0  0  0  0  0  0  0  0
   12.5880   -2.6450   -1.7110 O   0  0  0  0  0  0  0  0  0  0  0  0
   11.6660   -1.1780    1.2880 H   0  0  0  0  0  0  0  0  0  0  0  0
   11.0020   -2.6870    0.4720 H   0  0  0  0  0  0  0  0  0  0  0  0
   11.7120   -2.7970    2.1490 H   0  0  0  0  0  0  0  0  0  0  0  0
   15.3420   -2.4510    3.1180 H   0  0  0  0  0  0  0  0  0  0  0  0
   16.3370   -2.8160    0.8340 H   0  0  0  0  0  0  0  0  0  0  0  0
   16.4670   -4.3270   -1.3500 H   0  0  0  0  0  0  0  0  0  0  0  0
   14.9460   -4.9170   -0.5680 H   0  0  0  0  0  0  0  0  0  0  0  0
   14.9300   -4.4640   -2.3190 H   0  0  0  0  0  0  0  0  0  0  0  0
   16.4210   -2.9990   -3.3490 H   0  0  0  0  0  0  0  0  0  0  0  0
   17.1350   -1.1600   -4.8410 H   0  0  0  0  0  0  0  0  0  0  0  0
   16.6620    1.2000   -4.2600 H   0  0  0  0  0  0  0  0  0  0  0  0
   14.8970    2.8130   -3.9710 H   0  0  0  0  0  0  0  0  0  0  0  0
   14.3340    5.1110   -3.2360 H   0  0  0  0  0  0  0  0  0  0  0  0
   14.4560    5.7300   -0.8190 H   0  0  0  0  0  0  0  0  0  0  0  0
   15.8640    1.7440    0.1080 H   0  0  0  0  0  0  0  0  0  0  0  0
   14.7150   -0.1190   -0.6330 H   0  0  0  0  0  0  0  0  0  0  0  0
   13.6300   -2.1160    3.2790 H   0  0  0  0  0  0  0  0  0  0  0  0
  1  2  1  0  0  0  0
  1 23  1  0  0  0  0
  1 24  1  0  0  0  0
  1 25  1  0  0  0  0
  2  3  1  0  0  0  0
  2 21  1  0  0  0  0
  3  4  1  0  0  0  0
  3  5  2  0  0  0  0
  4 26  1  0  0  0  0
  4 39  1  0  0  0  0
  5  6  1  0  0  0  0
  5 27  1  0  0  0  0
  6  7  1  6  0  0  0
  6  8  1  0  0  0  0
  6 21  1  0  0  0  0
  7 28  1  0  0  0  0
  7 29  1  0  0  0  0
  7 30  1  0  0  0  0
  8  9  2  0  0  0  0
  8 20  1  0  0  0  0
  9 10  1  0  0  0  0
  9 31  1  0  0  0  0
 10 11  2  0  0  0  0
 10 32  1  0  0  0  0
 11 12  1  0  0  0  0
 11 33  1  0  0  0  0
 12 13  1  0  0  0  0
 12 20  2  0  0  0  0
 13 14  2  0  0  0  0
 13 19  1  0  0  0  0
 14 15  1  0  0  0  0
 14 34  1  0  0  0  0
 15 16  2  0  0  0  0
 15 35  1  0  0  0  0
 16 17  1  0  0  0  0
 16 36  1  0  0  0  0
 17 18  1  0  0  0  0
 17 19  2  0  0  0  0
 19 37  1  0  0  0  0
 20 38  1  0  0  0  0
 21 22  2  0  0  0  0
M  CHG  1   5   1
M  END
$$$$
