34
                    3D
 Schrodinger Suite 2022-3.
 41 43  0  0  1  0  0  0  0  0999 V2000
    3.6000  -48.6450    7.1910 O   0  0  0  0  0  0  0  0  0  0  0  0
    3.1730  -49.4770    6.3790 C   0  0  0  0  0  0  0  0  0  0  0  0
    3.8450  -50.1960    5.6170 O   0  5  0  0  0  0  0  0  0  0  0  0
    1.6480  -49.6990    6.3080 C   0  0  0  0  0  0  0  0  0  0  0  0
   -0.2740  -50.9300    6.4760 C   0  0  0  0  0  0  0  0  0  0  0  0
   -1.2430  -51.9220    6.7010 C   0  0  0  0  0  0  0  0  0  0  0  0
   -2.5630  -51.6010    6.4180 C   0  0  0  0  0  0  0  0  0  0  0  0
   -2.9160  -50.3260    5.9180 C   0  0  0  0  0  0  0  0  0  0  0  0
   -1.9630  -49.3410    5.6950 C   0  0  0  0  0  0  0  0  0  0  0  0
   -0.6160  -49.6210    5.9760 C   0  0  0  0  0  0  0  0  0  0  0  0
    0.6150  -48.8630    5.8960 C   0  0  0  0  0  0  0  0  0  0  0  0
    0.6890  -47.4430    5.4610 C   0  0  0  0  0  0  0  0  0  0  0  0
    0.6610  -46.4600    6.6480 C   0  0  0  0  0  0  0  0  0  0  0  0
   -0.6580  -46.4780    7.4100 C   0  0  0  0  0  0  0  0  0  0  0  0
   -1.5990  -45.7870    6.4960 O   0  0  0  0  0  0  0  0  0  0  0  0
   -2.8700  -45.5920    6.9130 C   0  0  0  0  0  0  0  0  0  0  0  0
   -3.6530  -44.8040    6.0310 C   0  0  0  0  0  0  0  0  0  0  0  0
   -4.9620  -44.5080    6.3690 C   0  0  0  0  0  0  0  0  0  0  0  0
   -5.5160  -45.0010    7.5700 C   0  0  0  0  0  0  0  0  0  0  0  0
   -4.7430  -45.8060    8.4210 C   0  0  0  0  0  0  0  0  0  0  0  0
   -3.4200  -46.0990    8.1070 C   0  0  0  0  0  0  0  0  0  0  0  0
   -0.9760  -52.9050    7.0880 H   0  0  0  0  0  0  0  0  0  0  0  0
   -3.3500  -52.3370    6.5850 H   0  0  0  0  0  0  0  0  0  0  0  0
   -3.9670  -50.1230    5.7090 H   0  0  0  0  0  0  0  0  0  0  0  0
   -2.2650  -48.3670    5.3090 H   0  0  0  0  0  0  0  0  0  0  0  0
   -0.1930  -47.2150    4.8070 H   0  0  0  0  0  0  0  0  0  0  0  0
    1.6210  -47.2550    4.8760 H   0  0  0  0  0  0  0  0  0  0  0  0
    0.8250  -45.4240    6.2680 H   0  0  0  0  0  0  0  0  0  0  0  0
    1.4740  -46.7330    7.3650 H   0  0  0  0  0  0  0  0  0  0  0  0
   -0.6220  -45.8690    8.3370 H   0  0  0  0  0  0  0  0  0  0  0  0
   -1.0550  -47.5050    7.5660 H   0  0  0  0  0  0  0  0  0  0  0  0
   -3.2280  -44.4410    5.0980 H   0  0  0  0  0  0  0  0  0  0  0  0
   -2.8540  -46.7360    8.7830 H   0  0  0  0  0  0  0  0  0  0  0  0
    1.1170  -50.9510    6.6690 N   0  0  0  0  0  0  0  0  0  0  0  0
    1.6200  -51.7620    7.0120 H   0  0  0  0  0  0  0  0  0  0  0  0
   -5.1710  -46.2220    9.3380 H   0  0  0  0  0  0  0  0  0  0  0  0
   -5.5690  -43.9010    5.6910 H   0  0  0  0  0  0  0  0  0  0  0  0
   -6.9310  -44.6870    7.9030 C   0  0  0  0  0  0  0  0  0  0  0  0
   -7.8560  -45.3570    7.1890 F   0  0  0  0  0  0  0  0  0  0  0  0
   -7.3060  -44.9230    9.1740 F   0  0  0  0  0  0  0  0  0  0  0  0
   -7.2880  -43.4000    7.7180 F   0  0  0  0  0  0  0  0  0  0  0  0
  1  2  2  0  0  0  0
  2  3  1  0  0  0  0
  2  4  1  0  0  0  0
  4 11  2  0  0  0  0
  4 34  1  0  0  0  0
  5  6  1  0  0  0  0
  5 10  2  0  0  0  0
  5 34  1  0  0  0  0
  6  7  2  0  0  0  0
  6 22  1  0  0  0  0
  7  8  1  0  0  0  0
  7 23  1  0  0  0  0
  8  9  2  0  0  0  0
  8 24  1  0  0  0  0
  9 10  1  0  0  0  0
  9 25  1  0  0  0  0
 10 11  1  0  0  0  0
 11 12  1  0  0  0  0
 12 26  1  0  0  0  0
 12 27  1  0  0  0  0
 12 13  1  0  0  0  0
 13 14  1  0  0  0  0
 13 28  1  0  0  0  0
 13 29  1  0  0  0  0
 14 15  1  0  0  0  0
 14 30  1  0  0  0  0
 14 31  1  0  0  0  0
 15 16  1  0  0  0  0
 16 17  1  0  0  0  0
 16 21  2  0  0  0  0
 17 18  2  0  0  0  0
 17 32  1  0  0  0  0
 18 19  1  0  0  0  0
 18 37  1  0  0  0  0
 19 20  2  0  0  0  0
 19 38  1  0  0  0  0
 20 21  1  0  0  0  0
 20 36  1  0  0  0  0
 21 33  1  0  0  0  0
 34 35  1  0  0  0  0
 38 39  1  0  0  0  0
 38 40  1  0  0  0  0
 38 41  1  0  0  0  0
M  CHG  1   3  -1
M  END
$$$$
