18626-1
 OpenBabel02232411163D
Structure written by MMmdl.
 38 39  0  0  0  0  0  0  0  0999 V2000
   23.7910   12.6910   30.3520 C   0  0  0  0  0  0  0  0  0  0  0  0
   23.3630   11.2380   30.4300 C   0  0  0  0  0  0  0  0  0  0  0  0
   22.1260   11.3010   31.2520 O   0  0  0  0  0  0  0  0  0  0  0  0
   21.5130   10.1480   31.5870 C   0  0  0  0  0  0  0  0  0  0  0  0
   22.0090    8.9690   31.1400 N   0  0  0  0  0  0  0  0  0  0  0  0
   21.3040    7.8180   31.4610 C   0  0  0  0  0  0  0  0  0  0  0  0
   20.1530    7.8320   32.2410 C   0  0  0  0  0  0  0  0  0  0  0  0
   19.6430    9.0730   32.7100 C   0  0  0  0  0  0  0  0  0  0  0  0
   18.4950    9.0990   33.4600 N   0  0  0  0  0  0  0  0  0  0  0  0
   20.3300   10.2820   32.3740 C   0  0  0  0  0  0  0  0  0  0  0  0
   19.8930   11.5750   32.7350 C   0  0  0  0  0  0  0  0  0  0  0  0
   19.5830   12.6640   32.9880 N   0  0  0  0  0  0  0  0  0  0  0  0
   21.8940    6.6660   30.8850 N   0  0  0  0  0  0  0  0  0  0  0  0
   21.3700    5.3500   30.8780 C   0  0  0  0  0  0  0  0  0  0  0  0
   20.3360    5.0530   31.4370 O   0  0  0  0  0  0  0  0  0  0  0  0
   22.1970    4.3770   30.0480 C   0  0  0  0  0  0  0  0  0  0  0  0
   23.5240    4.0490   30.6800 C   0  0  0  0  0  0  0  0  0  0  0  0
   24.6570    4.8240   30.3850 C   0  0  0  0  0  0  0  0  0  0  0  0
   25.8710    4.5020   30.9950 C   0  0  0  0  0  0  0  0  0  0  0  0
   27.2590    5.4610   30.6290 Cl  0  0  0  0  0  0  0  0  0  0  0  0
   26.0000    3.4330   31.8830 C   0  0  0  0  0  0  0  0  0  0  0  0
   24.8690    2.6570   32.1530 C   0  0  0  0  0  0  0  0  0  0  0  0
   23.6410    2.9560   31.5520 C   0  0  0  0  0  0  0  0  0  0  0  0
   24.6850   12.7650   29.6810 H   0  0  0  0  0  0  0  0  0  0  0  0
   22.9810   13.3240   29.9200 H   0  0  0  0  0  0  0  0  0  0  0  0
   24.0640   13.0900   31.3540 H   0  0  0  0  0  0  0  0  0  0  0  0
   23.0820   10.8220   29.4370 H   0  0  0  0  0  0  0  0  0  0  0  0
   24.1040   10.5990   30.9600 H   0  0  0  0  0  0  0  0  0  0  0  0
   19.6220    6.9090   32.4820 H   0  0  0  0  0  0  0  0  0  0  0  0
   18.0060    8.2220   33.7240 H   0  0  0  0  0  0  0  0  0  0  0  0
   18.0830    9.9790   33.7700 H   0  0  0  0  0  0  0  0  0  0  0  0
   22.7820    6.8400   30.3730 H   0  0  0  0  0  0  0  0  0  0  0  0
   21.6050    3.4310   29.9200 H   0  0  0  0  0  0  0  0  0  0  0  0
   22.3600    4.8180   29.0290 H   0  0  0  0  0  0  0  0  0  0  0  0
   24.6070    5.6590   29.6810 H   0  0  0  0  0  0  0  0  0  0  0  0
   26.9590    3.1970   32.3530 H   0  0  0  0  0  0  0  0  0  0  0  0
   24.9480    1.8040   32.8350 H   0  0  0  0  0  0  0  0  0  0  0  0
   22.7810    2.3160   31.7620 H   0  0  0  0  0  0  0  0  0  0  0  0
  1  2  1  0  0  0  0
  1 24  1  0  0  0  0
  1 25  1  0  0  0  0
  1 26  1  0  0  0  0
  2  3  1  0  0  0  0
  2 27  1  0  0  0  0
  2 28  1  0  0  0  0
  3  4  1  0  0  0  0
  4 10  2  0  0  0  0
  4  5  1  0  0  0  0
  5  6  2  0  0  0  0
  6  7  1  0  0  0  0
  6 13  1  0  0  0  0
  7  8  2  0  0  0  0
  7 29  1  0  0  0  0
  8  9  1  0  0  0  0
  8 10  1  0  0  0  0
  9 30  1  0  0  0  0
  9 31  1  0  0  0  0
 10 11  1  0  0  0  0
 11 12  3  0  0  0  0
 13 14  1  0  0  0  0
 13 32  1  0  0  0  0
 14 15  2  0  0  0  0
 14 16  1  0  0  0  0
 16 17  1  0  0  0  0
 16 33  1  0  0  0  0
 16 34  1  0  0  0  0
 17 23  2  0  0  0  0
 17 18  1  0  0  0  0
 18 19  2  0  0  0  0
 18 35  1  0  0  0  0
 19 20  1  0  0  0  0
 19 21  1  0  0  0  0
 21 22  2  0  0  0  0
 21 36  1  0  0  0  0
 22 23  1  0  0  0  0
 22 37  1  0  0  0  0
 23 38  1  0  0  0  0
M  END
$$$$
