p38a_2ff
 OpenBabel02232411163D
Structure written by MMmdl.
 49 52  0  0  1  0  0  0  0  0999 V2000
   38.2630   36.5230   17.1750 C   0  0  0  0  0  0  0  0  0  0  0  0
   34.5330   35.1690   21.2500 C   0  0  0  0  0  0  0  0  0  0  0  0
   37.4660   36.0720   18.2230 C   0  0  0  0  0  0  0  0  0  0  0  0
   34.0800   39.3200   23.6970 C   0  0  0  0  0  0  0  0  0  0  0  0
   34.6210   38.0470   21.3080 C   0  0  0  0  0  0  0  0  0  0  0  0
   34.9930   37.3550   20.1060 C   0  0  0  0  0  0  0  0  0  0  0  0
   37.6280   36.6880   15.9360 C   0  0  0  0  0  0  0  0  0  0  0  0
   36.2790   36.3970   15.7170 C   0  0  0  0  0  0  0  0  0  0  0  0
   35.5030   35.9320   16.7840 C   0  0  0  0  0  0  0  0  0  0  0  0
   34.2930   37.3140   22.4860 C   0  0  0  0  0  0  0  0  0  0  0  0
   34.5820   39.4650   21.4040 C   0  0  0  0  0  0  0  0  0  0  0  0
   34.9870   36.0020   20.1060 C   0  0  0  0  0  0  0  0  0  0  0  0
   36.1010   35.7640   18.0350 C   0  0  0  0  0  0  0  0  0  0  0  0
   33.8680   35.1700   23.6870 C   0  0  0  0  0  0  0  0  0  0  0  0
   37.9850   35.9310   19.4360 F   0  0  0  0  0  0  0  0  0  0  0  0
   35.3630   35.1570   19.0610 O   0  0  0  0  0  0  0  0  0  0  0  0
   34.3210   40.1090   22.5490 N   0  0  0  0  0  0  0  0  0  0  0  0
   34.3980   33.9640   21.2370 O   0  0  0  0  0  0  0  0  0  0  0  0
   34.2350   35.9110   22.4470 N   0  0  0  0  0  0  0  0  0  0  0  0
   34.0220   37.9420   23.6770 N   0  0  0  0  0  0  0  0  0  0  0  0
   33.9450   40.0120   24.8770 N   0  0  0  0  0  0  0  0  0  0  0  0
   39.3180   36.7740   17.3180 H   0  0  0  0  0  0  0  0  0  0  0  0
   35.2830   37.9480   19.2370 H   0  0  0  0  0  0  0  0  0  0  0  0
   35.8200   36.5440   14.7370 H   0  0  0  0  0  0  0  0  0  0  0  0
   34.4390   35.7220   16.6320 H   0  0  0  0  0  0  0  0  0  0  0  0
   34.7610   40.0830   20.5090 H   0  0  0  0  0  0  0  0  0  0  0  0
   34.6280   35.3670   24.4900 H   0  0  0  0  0  0  0  0  0  0  0  0
   32.8650   35.5180   24.0560 H   0  0  0  0  0  0  0  0  0  0  0  0
   33.8210   34.0690   23.4830 H   0  0  0  0  0  0  0  0  0  0  0  0
   33.9030   41.0490   24.8470 H   0  0  0  0  0  0  0  0  0  0  0  0
   38.3380   37.1860   14.9270 F   0  0  0  0  0  0  0  0  0  0  0  0
   34.1020   37.9370   28.1220 C   0  0  0  0  0  0  0  0  0  0  0  0
   34.5290   38.4130   26.7270 C   0  0  0  0  0  0  0  0  0  0  0  0
   33.5200   39.4530   26.1960 C   0  0  2  0  0  0  0  0  0  0  0  0
   32.0820   38.8900   26.1500 C   0  0  0  0  0  0  0  0  0  0  0  0
   31.6640   38.4140   27.5480 C   0  0  0  0  0  0  0  0  0  0  0  0
   32.6690   37.3720   28.0770 C   0  0  2  0  0  0  0  0  0  0  0  0
   34.1600   38.7870   28.8420 H   0  0  0  0  0  0  0  0  0  0  0  0
   34.8040   37.1410   28.4670 H   0  0  0  0  0  0  0  0  0  0  0  0
   34.5790   37.5360   26.0390 H   0  0  0  0  0  0  0  0  0  0  0  0
   35.5410   38.8770   26.7860 H   0  0  0  0  0  0  0  0  0  0  0  0
   33.5310   40.3470   26.8900 H   0  0  0  0  0  0  0  0  0  0  0  0
   31.3820   39.6860   25.8040 H   0  0  0  0  0  0  0  0  0  0  0  0
   32.0290   38.0330   25.4380 H   0  0  0  0  0  0  0  0  0  0  0  0
   31.6210   39.2860   28.2410 H   0  0  0  0  0  0  0  0  0  0  0  0
   30.6460   37.9610   27.4950 H   0  0  0  0  0  0  0  0  0  0  0  0
   32.6260   36.4320   27.4770 H   0  0  0  0  0  0  0  0  0  0  0  0
   32.2730   36.9160   29.3860 O   0  0  0  0  0  0  0  0  0  0  0  0
   32.2860   37.6720   30.0240 H   0  0  0  0  0  0  0  0  0  0  0  0
  1  3  2  0  0  0  0
  1  7  1  0  0  0  0
  1 22  1  0  0  0  0
  2 12  1  0  0  0  0
  2 18  2  0  0  0  0
  2 19  1  0  0  0  0
  3 13  1  0  0  0  0
  3 15  1  0  0  0  0
  4 17  2  0  0  0  0
  4 20  1  0  0  0  0
  4 21  1  0  0  0  0
  5  6  1  0  0  0  0
  5 10  1  0  0  0  0
  5 11  2  0  0  0  0
  6 12  2  0  0  0  0
  6 23  1  0  0  0  0
  7  8  2  0  0  0  0
  7 31  1  0  0  0  0
  8  9  1  0  0  0  0
  8 24  1  0  0  0  0
  9 13  2  0  0  0  0
  9 25  1  0  0  0  0
 10 19  1  0  0  0  0
 10 20  2  0  0  0  0
 11 17  1  0  0  0  0
 11 26  1  0  0  0  0
 12 16  1  0  0  0  0
 13 16  1  0  0  0  0
 14 19  1  0  0  0  0
 14 27  1  0  0  0  0
 14 28  1  0  0  0  0
 14 29  1  0  0  0  0
 21 30  1  0  0  0  0
 21 34  1  0  0  0  0
 32 33  1  0  0  0  0
 32 37  1  0  0  0  0
 32 38  1  0  0  0  0
 32 39  1  0  0  0  0
 33 34  1  0  0  0  0
 33 40  1  0  0  0  0
 33 41  1  0  0  0  0
 34 35  1  0  0  0  0
 34 42  1  6  0  0  0
 35 36  1  0  0  0  0
 35 43  1  0  0  0  0
 35 44  1  0  0  0  0
 36 37  1  0  0  0  0
 36 45  1  0  0  0  0
 36 46  1  0  0  0  0
 37 47  1  1  0  0  0
 37 48  1  0  0  0  0
 48 49  1  0  0  0  0
M  END
$$$$
