45
                    3D
 Schrodinger Suite 2022-3.
 48 51  0  0  1  0  0  0  0  0999 V2000
    3.2060  -48.1340    7.1720 O   0  0  0  0  0  0  0  0  0  0  0  0
    2.7900  -49.0380    6.4360 C   0  0  0  0  0  0  0  0  0  0  0  0
    3.4710  -49.7650    5.6870 O   0  5  0  0  0  0  0  0  0  0  0  0
    1.2840  -49.3740    6.4450 C   0  0  0  0  0  0  0  0  0  0  0  0
   -0.4990  -50.7990    6.6510 C   0  0  0  0  0  0  0  0  0  0  0  0
   -1.3550  -51.8920    6.8650 C   0  0  0  0  0  0  0  0  0  0  0  0
   -2.7060  -51.7060    6.6070 C   0  0  0  0  0  0  0  0  0  0  0  0
   -3.2020  -50.4630    6.1500 C   0  0  0  0  0  0  0  0  0  0  0  0
   -2.3610  -49.3770    5.9450 C   0  0  0  0  0  0  0  0  0  0  0  0
   -0.9860  -49.5230    6.1900 C   0  0  0  0  0  0  0  0  0  0  0  0
    0.1590  -48.6420    6.0820 C   0  0  0  0  0  0  0  0  0  0  0  0
    0.0570  -47.2260    5.6410 C   0  0  0  0  0  0  0  0  0  0  0  0
    0.0140  -46.2200    6.8050 C   0  0  0  0  0  0  0  0  0  0  0  0
   -1.1830  -46.3720    7.7390 C   0  0  0  0  0  0  0  0  0  0  0  0
   -2.3030  -45.6840    7.0670 O   0  0  0  0  0  0  0  0  0  0  0  0
   -3.5160  -45.6800    7.7040 C   0  0  0  0  0  0  0  0  0  0  0  0
   -6.0700  -45.5300    8.8130 C   0  0  0  0  0  0  0  0  0  0  0  0
   -5.0820  -46.2830    9.4350 C   0  0  0  0  0  0  0  0  0  0  0  0
   -3.7960  -46.3730    8.8890 C   0  0  0  0  0  0  0  0  0  0  0  0
   -0.9800  -52.8520    7.2210 H   0  0  0  0  0  0  0  0  0  0  0  0
   -3.4060  -52.5290    6.7570 H   0  0  0  0  0  0  0  0  0  0  0  0
   -4.2710  -50.3620    5.9590 H   0  0  0  0  0  0  0  0  0  0  0  0
   -2.7710  -48.4270    5.6000 H   0  0  0  0  0  0  0  0  0  0  0  0
   -0.8830  -47.1020    5.0400 H   0  0  0  0  0  0  0  0  0  0  0  0
    0.9240  -46.9580    4.9890 H   0  0  0  0  0  0  0  0  0  0  0  0
   -0.0070  -45.1880    6.3860 H   0  0  0  0  0  0  0  0  0  0  0  0
    0.9340  -46.3480    7.4260 H   0  0  0  0  0  0  0  0  0  0  0  0
   -1.0220  -45.8240    8.6910 H   0  0  0  0  0  0  0  0  0  0  0  0
   -1.4840  -47.4310    7.8790 H   0  0  0  0  0  0  0  0  0  0  0  0
   -3.0590  -46.9860    9.3950 H   0  0  0  0  0  0  0  0  0  0  0  0
   -5.7980  -44.8630    7.5980 C   0  0  0  0  0  0  0  0  0  0  0  0
   -4.5150  -44.9050    7.0470 C   0  0  0  0  0  0  0  0  0  0  0  0
   -4.1930  -44.1900    5.7690 C   0  0  0  0  0  0  0  0  0  0  0  0
   -5.4260  -44.0460    4.8690 C   0  0  0  0  0  0  0  0  0  0  0  0
   -6.6120  -43.4290    5.6170 C   0  0  0  0  0  0  0  0  0  0  0  0
   -6.9540  -44.1870    6.9090 C   0  0  0  0  0  0  0  0  0  0  0  0
   -5.3180  -46.8240   10.3520 H   0  0  0  0  0  0  0  0  0  0  0  0
   -7.0660  -45.4740    9.2440 H   0  0  0  0  0  0  0  0  0  0  0  0
   -3.4040  -44.7520    5.2090 H   0  0  0  0  0  0  0  0  0  0  0  0
   -3.8100  -43.1680    6.0030 H   0  0  0  0  0  0  0  0  0  0  0  0
   -5.7330  -45.0490    4.4990 H   0  0  0  0  0  0  0  0  0  0  0  0
   -5.1540  -43.3980    4.0060 H   0  0  0  0  0  0  0  0  0  0  0  0
   -7.5040  -43.4560    4.9480 H   0  0  0  0  0  0  0  0  0  0  0  0
   -6.3840  -42.3690    5.8560 H   0  0  0  0  0  0  0  0  0  0  0  0
   -7.4350  -43.4770    7.6220 H   0  0  0  0  0  0  0  0  0  0  0  0
   -7.6980  -44.9900    6.6610 H   0  0  0  0  0  0  0  0  0  0  0  0
    0.8910  -50.6770    6.8120 N   0  0  0  0  0  0  0  0  0  0  0  0
    1.4890  -51.4450    7.0960 H   0  0  0  0  0  0  0  0  0  0  0  0
  1  2  2  0  0  0  0
  2  3  1  0  0  0  0
  2  4  1  0  0  0  0
  4 11  2  0  0  0  0
  4 47  1  0  0  0  0
  5  6  1  0  0  0  0
  5 10  2  0  0  0  0
  5 47  1  0  0  0  0
  6  7  2  0  0  0  0
  6 20  1  0  0  0  0
  7  8  1  0  0  0  0
  7 21  1  0  0  0  0
  8  9  2  0  0  0  0
  8 22  1  0  0  0  0
  9 10  1  0  0  0  0
  9 23  1  0  0  0  0
 10 11  1  0  0  0  0
 11 12  1  0  0  0  0
 12 24  1  0  0  0  0
 12 25  1  0  0  0  0
 12 13  1  0  0  0  0
 13 14  1  0  0  0  0
 13 26  1  0  0  0  0
 13 27  1  0  0  0  0
 14 15  1  0  0  0  0
 14 28  1  0  0  0  0
 14 29  1  0  0  0  0
 15 16  1  0  0  0  0
 16 19  2  0  0  0  0
 16 32  1  0  0  0  0
 17 18  2  0  0  0  0
 17 31  1  0  0  0  0
 17 38  1  0  0  0  0
 18 19  1  0  0  0  0
 18 37  1  0  0  0  0
 19 30  1  0  0  0  0
 31 32  2  0  0  0  0
 31 36  1  0  0  0  0
 32 33  1  0  0  0  0
 33 34  1  0  0  0  0
 33 39  1  0  0  0  0
 33 40  1  0  0  0  0
 34 35  1  0  0  0  0
 34 41  1  0  0  0  0
 34 42  1  0  0  0  0
 35 36  1  0  0  0  0
 35 43  1  0  0  0  0
 35 44  1  0  0  0  0
 36 45  1  0  0  0  0
 36 46  1  0  0  0  0
 47 48  1  0  0  0  0
M  CHG  1   3  -1
M  END
$$$$
