18626-1
 OpenBabel02232411163D
Structure written by MMmdl.
 38 39  0  0  0  0  0  0  0  0999 V2000
   23.2150   10.8700   29.0460 C   0  0  0  0  0  0  0  0  0  0  0  0
   23.4910   11.0830   30.5190 C   0  0  0  0  0  0  0  0  0  0  0  0
   22.2230   11.1530   31.2780 O   0  0  0  0  0  0  0  0  0  0  0  0
   21.5800   10.0130   31.6090 C   0  0  0  0  0  0  0  0  0  0  0  0
   22.0580    8.8230   31.1780 N   0  0  0  0  0  0  0  0  0  0  0  0
   21.3290    7.6870   31.4940 C   0  0  0  0  0  0  0  0  0  0  0  0
   20.1660    7.7250   32.2560 C   0  0  0  0  0  0  0  0  0  0  0  0
   19.6790    8.9780   32.7190 C   0  0  0  0  0  0  0  0  0  0  0  0
   18.5230    9.0270   33.4550 N   0  0  0  0  0  0  0  0  0  0  0  0
   20.3970   10.1720   32.3910 C   0  0  0  0  0  0  0  0  0  0  0  0
   19.9930   11.4730   32.7630 C   0  0  0  0  0  0  0  0  0  0  0  0
   19.7140   12.5670   33.0280 N   0  0  0  0  0  0  0  0  0  0  0  0
   21.9140    6.5260   30.9300 N   0  0  0  0  0  0  0  0  0  0  0  0
   21.3690    5.2210   30.9040 C   0  0  0  0  0  0  0  0  0  0  0  0
   20.3120    4.9450   31.4300 O   0  0  0  0  0  0  0  0  0  0  0  0
   22.2020    4.2350   30.0970 C   0  0  0  0  0  0  0  0  0  0  0  0
   23.5430    3.9460   30.7170 C   0  0  0  0  0  0  0  0  0  0  0  0
   24.6580    4.7350   30.3930 C   0  0  0  0  0  0  0  0  0  0  0  0
   25.8820    4.4550   31.0010 C   0  0  0  0  0  0  0  0  0  0  0  0
   27.2440    5.4410   30.6090 Cl  0  0  0  0  0  0  0  0  0  0  0  0
   26.0420    3.4090   31.9100 C   0  0  0  0  0  0  0  0  0  0  0  0
   24.9310    2.6140   32.2050 C   0  0  0  0  0  0  0  0  0  0  0  0
   23.6920    2.8740   31.6110 C   0  0  0  0  0  0  0  0  0  0  0  0
   24.1600   11.0230   28.4670 H   0  0  0  0  0  0  0  0  0  0  0  0
   22.4580   11.5910   28.6660 H   0  0  0  0  0  0  0  0  0  0  0  0
   22.8540    9.8330   28.8460 H   0  0  0  0  0  0  0  0  0  0  0  0
   23.8790   12.1090   30.7320 H   0  0  0  0  0  0  0  0  0  0  0  0
   24.1400   10.2890   30.9500 H   0  0  0  0  0  0  0  0  0  0  0  0
   19.6120    6.8130   32.4880 H   0  0  0  0  0  0  0  0  0  0  0  0
   18.0250    8.1590   33.7320 H   0  0  0  0  0  0  0  0  0  0  0  0
   18.1290    9.9150   33.7670 H   0  0  0  0  0  0  0  0  0  0  0  0
   22.8150    6.6900   30.4400 H   0  0  0  0  0  0  0  0  0  0  0  0
   21.6240    3.2770   30.0040 H   0  0  0  0  0  0  0  0  0  0  0  0
   22.3430    4.6530   29.0650 H   0  0  0  0  0  0  0  0  0  0  0  0
   24.5870    5.5500   29.6660 H   0  0  0  0  0  0  0  0  0  0  0  0
   27.0100    3.2050   32.3780 H   0  0  0  0  0  0  0  0  0  0  0  0
   25.0340    1.7760   32.9040 H   0  0  0  0  0  0  0  0  0  0  0  0
   22.8470    2.2220   31.8430 H   0  0  0  0  0  0  0  0  0  0  0  0
  1  2  1  0  0  0  0
  1 24  1  0  0  0  0
  1 25  1  0  0  0  0
  1 26  1  0  0  0  0
  2  3  1  0  0  0  0
  2 27  1  0  0  0  0
  2 28  1  0  0  0  0
  3  4  1  0  0  0  0
  4 10  2  0  0  0  0
  4  5  1  0  0  0  0
  5  6  2  0  0  0  0
  6  7  1  0  0  0  0
  6 13  1  0  0  0  0
  7  8  2  0  0  0  0
  7 29  1  0  0  0  0
  8  9  1  0  0  0  0
  8 10  1  0  0  0  0
  9 30  1  0  0  0  0
  9 31  1  0  0  0  0
 10 11  1  0  0  0  0
 11 12  3  0  0  0  0
 13 14  1  0  0  0  0
 13 32  1  0  0  0  0
 14 15  2  0  0  0  0
 14 16  1  0  0  0  0
 16 17  1  0  0  0  0
 16 33  1  0  0  0  0
 16 34  1  0  0  0  0
 17 23  2  0  0  0  0
 17 18  1  0  0  0  0
 18 19  2  0  0  0  0
 18 35  1  0  0  0  0
 19 20  1  0  0  0  0
 19 21  1  0  0  0  0
 21 22  2  0  0  0  0
 21 36  1  0  0  0  0
 22 23  1  0  0  0  0
 22 37  1  0  0  0  0
 23 38  1  0  0  0  0
M  END
$$$$
