p38a_3flw
 OpenBabel02232411163D
Structure written by MMmdl.
 49 51  0  0  0  0  0  0  0  0999 V2000
   38.2200   36.5240   17.2140 C   0  0  0  0  0  0  0  0  0  0  0  0
   37.6040   36.7110   15.9690 C   0  0  0  0  0  0  0  0  0  0  0  0
   34.7460   38.0480   26.9080 C   0  0  0  0  0  0  0  0  0  0  0  0
   34.0760   36.7400   27.3550 C   0  0  0  0  0  0  0  0  0  0  0  0
   33.4480   40.1530   27.5940 C   0  0  0  0  0  0  0  0  0  0  0  0
   33.9720   34.9750   23.7110 C   0  0  0  0  0  0  0  0  0  0  0  0
   37.9040   35.9340   19.4710 F   0  0  0  0  0  0  0  0  0  0  0  0
   37.3960   36.1090   18.2570 C   0  0  0  0  0  0  0  0  0  0  0  0
   38.3450   37.1690   14.9630 F   0  0  0  0  0  0  0  0  0  0  0  0
   36.2460   36.4790   15.7390 C   0  0  0  0  0  0  0  0  0  0  0  0
   35.4400   36.0570   16.8020 C   0  0  0  0  0  0  0  0  0  0  0  0
   36.0190   35.8660   18.0600 C   0  0  0  0  0  0  0  0  0  0  0  0
   35.2400   35.2740   19.0610 O   0  0  0  0  0  0  0  0  0  0  0  0
   34.9450   36.0660   20.1690 C   0  0  0  0  0  0  0  0  0  0  0  0
   34.9810   37.4150   20.2620 C   0  0  0  0  0  0  0  0  0  0  0  0
   34.6470   38.0280   21.5190 C   0  0  0  0  0  0  0  0  0  0  0  0
   34.6270   39.4370   21.6990 C   0  0  0  0  0  0  0  0  0  0  0  0
   34.3990   40.0170   22.8840 N   0  0  0  0  0  0  0  0  0  0  0  0
   34.5180   35.1690   21.2720 C   0  0  0  0  0  0  0  0  0  0  0  0
   34.3710   33.9690   21.1890 O   0  0  0  0  0  0  0  0  0  0  0  0
   34.2710   35.8310   22.5300 N   0  0  0  0  0  0  0  0  0  0  0  0
   34.3300   37.2270   22.6570 C   0  0  0  0  0  0  0  0  0  0  0  0
   34.0740   37.7930   23.8870 N   0  0  0  0  0  0  0  0  0  0  0  0
   34.1710   39.1690   23.9890 C   0  0  0  0  0  0  0  0  0  0  0  0
   34.0860   39.7910   25.2160 N   0  0  0  0  0  0  0  0  0  0  0  0
   33.7000   39.1030   26.4920 C   0  0  0  0  0  0  0  0  0  0  0  0
   34.6550   41.0160   27.9910 C   0  0  0  0  0  0  0  0  0  0  0  0
   34.3590   41.7860   29.1720 O   0  0  0  0  0  0  0  0  0  0  0  0
   33.1200   36.2520   26.3980 O   0  0  0  0  0  0  0  0  0  0  0  0
   39.2840   36.7290   17.3650 H   0  0  0  0  0  0  0  0  0  0  0  0
   35.3680   38.4230   27.7560 H   0  0  0  0  0  0  0  0  0  0  0  0
   35.4440   37.8390   26.0630 H   0  0  0  0  0  0  0  0  0  0  0  0
   34.8430   35.9400   27.4840 H   0  0  0  0  0  0  0  0  0  0  0  0
   33.4830   36.8840   28.2880 H   0  0  0  0  0  0  0  0  0  0  0  0
   32.6240   40.8320   27.2630 H   0  0  0  0  0  0  0  0  0  0  0  0
   33.0900   39.5990   28.5000 H   0  0  0  0  0  0  0  0  0  0  0  0
   32.9040   35.1210   24.0250 H   0  0  0  0  0  0  0  0  0  0  0  0
   34.1230   33.8930   23.4490 H   0  0  0  0  0  0  0  0  0  0  0  0
   34.6610   35.2360   24.5580 H   0  0  0  0  0  0  0  0  0  0  0  0
   35.8030   36.6360   14.7530 H   0  0  0  0  0  0  0  0  0  0  0  0
   34.3700   35.8890   16.6430 H   0  0  0  0  0  0  0  0  0  0  0  0
   35.2620   38.0620   19.4280 H   0  0  0  0  0  0  0  0  0  0  0  0
   34.8000   40.1020   20.8360 H   0  0  0  0  0  0  0  0  0  0  0  0
   34.0040   40.8300   25.2320 H   0  0  0  0  0  0  0  0  0  0  0  0
   32.7080   38.5890   26.3130 H   0  0  0  0  0  0  0  0  0  0  0  0
   35.5300   40.4060   28.3070 H   0  0  0  0  0  0  0  0  0  0  0  0
   34.9270   41.7250   27.1780 H   0  0  0  0  0  0  0  0  0  0  0  0
   33.5010   42.2950   29.0070 H   0  0  0  0  0  0  0  0  0  0  0  0
   33.3160   36.6670   25.5190 H   0  0  0  0  0  0  0  0  0  0  0  0
  1  2  2  0  0  0  0
  1  8  1  0  0  0  0
  1 30  1  0  0  0  0
  2  9  1  0  0  0  0
  2 10  1  0  0  0  0
  3  4  1  0  0  0  0
  3 26  1  0  0  0  0
  3 31  1  0  0  0  0
  3 32  1  0  0  0  0
  4 29  1  0  0  0  0
  4 33  1  0  0  0  0
  4 34  1  0  0  0  0
  5 26  1  0  0  0  0
  5 27  1  0  0  0  0
  5 35  1  0  0  0  0
  5 36  1  0  0  0  0
  6 21  1  0  0  0  0
  6 37  1  0  0  0  0
  6 38  1  0  0  0  0
  6 39  1  0  0  0  0
  7  8  1  0  0  0  0
  8 12  2  0  0  0  0
 10 11  2  0  0  0  0
 10 40  1  0  0  0  0
 11 12  1  0  0  0  0
 11 41  1  0  0  0  0
 12 13  1  0  0  0  0
 13 14  1  0  0  0  0
 14 15  2  0  0  0  0
 14 19  1  0  0  0  0
 15 16  1  0  0  0  0
 15 42  1  0  0  0  0
 16 17  2  0  0  0  0
 16 22  1  0  0  0  0
 17 18  1  0  0  0  0
 17 43  1  0  0  0  0
 18 24  2  0  0  0  0
 19 20  2  0  0  0  0
 19 21  1  0  0  0  0
 21 22  1  0  0  0  0
 22 23  2  0  0  0  0
 23 24  1  0  0  0  0
 24 25  1  0  0  0  0
 25 26  1  0  0  0  0
 25 44  1  0  0  0  0
 26 45  1  0  0  0  0
 27 28  1  0  0  0  0
 27 46  1  0  0  0  0
 27 47  1  0  0  0  0
 28 48  1  0  0  0  0
 29 49  1  0  0  0  0
M  END
$$$$
