p38a_3flw
 OpenBabel02232411163D
Structure written by MMmdl.
 49 51  0  0  0  0  0  0  0  0999 V2000
   38.3310   36.5900   17.1330 C   0  0  0  0  0  0  0  0  0  0  0  0
   37.6840   36.7390   15.8990 C   0  0  0  0  0  0  0  0  0  0  0  0
   33.3000   37.5830   26.5860 C   0  0  0  0  0  0  0  0  0  0  0  0
   32.4440   36.9200   27.6770 C   0  0  0  0  0  0  0  0  0  0  0  0
   32.3510   39.9060   27.1700 C   0  0  0  0  0  0  0  0  0  0  0  0
   33.2020   34.8900   23.2870 C   0  0  0  0  0  0  0  0  0  0  0  0
   38.0850   35.9920   19.3960 F   0  0  0  0  0  0  0  0  0  0  0  0
   37.5530   36.1200   18.1880 C   0  0  0  0  0  0  0  0  0  0  0  0
   38.3750   37.2500   14.8830 F   0  0  0  0  0  0  0  0  0  0  0  0
   36.3400   36.4190   15.6900 C   0  0  0  0  0  0  0  0  0  0  0  0
   35.5830   35.9360   16.7620 C   0  0  0  0  0  0  0  0  0  0  0  0
   36.1970   35.7760   18.0070 C   0  0  0  0  0  0  0  0  0  0  0  0
   35.4910   35.1220   19.0250 O   0  0  0  0  0  0  0  0  0  0  0  0
   35.0320   35.9200   20.0700 C   0  0  0  0  0  0  0  0  0  0  0  0
   35.1160   37.2640   20.1920 C   0  0  0  0  0  0  0  0  0  0  0  0
   34.6140   37.8810   21.3910 C   0  0  0  0  0  0  0  0  0  0  0  0
   34.6960   39.2770   21.6410 C   0  0  0  0  0  0  0  0  0  0  0  0
   34.3040   39.8400   22.7940 N   0  0  0  0  0  0  0  0  0  0  0  0
   34.3980   35.0230   21.0730 C   0  0  0  0  0  0  0  0  0  0  0  0
   34.3010   33.8180   20.9770 O   0  0  0  0  0  0  0  0  0  0  0  0
   33.8760   35.6960   22.2310 N   0  0  0  0  0  0  0  0  0  0  0  0
   34.0160   37.0830   22.4110 C   0  0  0  0  0  0  0  0  0  0  0  0
   33.5790   37.6320   23.5900 N   0  0  0  0  0  0  0  0  0  0  0  0
   33.7720   38.9850   23.7830 C   0  0  0  0  0  0  0  0  0  0  0  0
   33.4920   39.5460   25.0120 N   0  0  0  0  0  0  0  0  0  0  0  0
   32.6420   38.8740   26.0580 C   0  0  0  0  0  0  0  0  0  0  0  0
   33.5830   40.3600   27.9710 C   0  0  0  0  0  0  0  0  0  0  0  0
   33.1920   40.9040   29.2430 O   0  0  0  0  0  0  0  0  0  0  0  0
   32.9140   35.5890   27.9620 O   0  0  0  0  0  0  0  0  0  0  0  0
   39.3800   36.8650   17.2710 H   0  0  0  0  0  0  0  0  0  0  0  0
   34.3230   37.7970   26.9720 H   0  0  0  0  0  0  0  0  0  0  0  0
   33.4060   36.8590   25.7380 H   0  0  0  0  0  0  0  0  0  0  0  0
   32.5540   37.4320   28.6610 H   0  0  0  0  0  0  0  0  0  0  0  0
   31.3740   36.8600   27.3660 H   0  0  0  0  0  0  0  0  0  0  0  0
   31.8760   40.8000   26.7020 H   0  0  0  0  0  0  0  0  0  0  0  0
   31.6090   39.4580   27.8750 H   0  0  0  0  0  0  0  0  0  0  0  0
   32.2230   35.3670   23.5680 H   0  0  0  0  0  0  0  0  0  0  0  0
   33.0010   33.8530   22.9110 H   0  0  0  0  0  0  0  0  0  0  0  0
   33.8510   34.8340   24.2010 H   0  0  0  0  0  0  0  0  0  0  0  0
   35.8700   36.5580   14.7140 H   0  0  0  0  0  0  0  0  0  0  0  0
   34.5230   35.7020   16.6200 H   0  0  0  0  0  0  0  0  0  0  0  0
   35.5560   37.9070   19.4270 H   0  0  0  0  0  0  0  0  0  0  0  0
   35.0930   39.9490   20.8630 H   0  0  0  0  0  0  0  0  0  0  0  0
   33.5620   40.5810   25.1010 H   0  0  0  0  0  0  0  0  0  0  0  0
   31.6550   38.6020   25.5810 H   0  0  0  0  0  0  0  0  0  0  0  0
   34.2310   39.5030   28.2610 H   0  0  0  0  0  0  0  0  0  0  0  0
   34.1530   41.1350   27.4110 H   0  0  0  0  0  0  0  0  0  0  0  0
   32.6760   41.7580   29.0740 H   0  0  0  0  0  0  0  0  0  0  0  0
   32.8760   35.0490   27.1290 H   0  0  0  0  0  0  0  0  0  0  0  0
  1  2  2  0  0  0  0
  1  8  1  0  0  0  0
  1 30  1  0  0  0  0
  2  9  1  0  0  0  0
  2 10  1  0  0  0  0
  3  4  1  0  0  0  0
  3 26  1  0  0  0  0
  3 31  1  0  0  0  0
  3 32  1  0  0  0  0
  4 29  1  0  0  0  0
  4 33  1  0  0  0  0
  4 34  1  0  0  0  0
  5 26  1  0  0  0  0
  5 27  1  0  0  0  0
  5 35  1  0  0  0  0
  5 36  1  0  0  0  0
  6 21  1  0  0  0  0
  6 37  1  0  0  0  0
  6 38  1  0  0  0  0
  6 39  1  0  0  0  0
  7  8  1  0  0  0  0
  8 12  2  0  0  0  0
 10 11  2  0  0  0  0
 10 40  1  0  0  0  0
 11 12  1  0  0  0  0
 11 41  1  0  0  0  0
 12 13  1  0  0  0  0
 13 14  1  0  0  0  0
 14 15  2  0  0  0  0
 14 19  1  0  0  0  0
 15 16  1  0  0  0  0
 15 42  1  0  0  0  0
 16 17  2  0  0  0  0
 16 22  1  0  0  0  0
 17 18  1  0  0  0  0
 17 43  1  0  0  0  0
 18 24  2  0  0  0  0
 19 20  2  0  0  0  0
 19 21  1  0  0  0  0
 21 22  1  0  0  0  0
 22 23  2  0  0  0  0
 23 24  1  0  0  0  0
 24 25  1  0  0  0  0
 25 26  1  0  0  0  0
 25 44  1  0  0  0  0
 26 45  1  0  0  0  0
 27 28  1  0  0  0  0
 27 46  1  0  0  0  0
 27 47  1  0  0  0  0
 28 48  1  0  0  0  0
 29 49  1  0  0  0  0
M  END
$$$$
