p38a_3flw
 OpenBabel02232411163D
Structure written by MMmdl.
 49 51  0  0  0  0  0  0  0  0999 V2000
   36.4190   36.1150   15.7280 C   0  0  0  0  0  0  0  0  0  0  0  0
   37.7040   36.6490   15.8920 C   0  0  0  0  0  0  0  0  0  0  0  0
   32.8850   37.3920   26.4290 C   0  0  0  0  0  0  0  0  0  0  0  0
   32.1620   36.7020   27.5940 C   0  0  0  0  0  0  0  0  0  0  0  0
   31.9050   39.7150   27.0310 C   0  0  0  0  0  0  0  0  0  0  0  0
   33.0450   34.7220   23.1360 C   0  0  0  0  0  0  0  0  0  0  0  0
   34.6130   35.0400   16.8020 F   0  0  0  0  0  0  0  0  0  0  0  0
   35.8120   35.6030   16.8700 C   0  0  0  0  0  0  0  0  0  0  0  0
   38.2890   37.1990   14.8300 F   0  0  0  0  0  0  0  0  0  0  0  0
   38.3830   36.6640   17.1130 C   0  0  0  0  0  0  0  0  0  0  0  0
   37.7340   36.1810   18.2550 C   0  0  0  0  0  0  0  0  0  0  0  0
   36.4490   35.6500   18.1270 C   0  0  0  0  0  0  0  0  0  0  0  0
   35.7910   34.9900   19.1700 O   0  0  0  0  0  0  0  0  0  0  0  0
   35.1990   35.7940   20.1400 C   0  0  0  0  0  0  0  0  0  0  0  0
   35.2810   37.1350   20.2940 C   0  0  0  0  0  0  0  0  0  0  0  0
   34.6310   37.7400   21.4270 C   0  0  0  0  0  0  0  0  0  0  0  0
   34.6820   39.1340   21.7020 C   0  0  0  0  0  0  0  0  0  0  0  0
   34.1550   39.6830   22.8070 N   0  0  0  0  0  0  0  0  0  0  0  0
   34.4250   34.8930   21.0370 C   0  0  0  0  0  0  0  0  0  0  0  0
   34.2970   33.6970   20.8850 O   0  0  0  0  0  0  0  0  0  0  0  0
   33.7990   35.5480   22.1520 N   0  0  0  0  0  0  0  0  0  0  0  0
   33.9160   36.9330   22.3610 C   0  0  0  0  0  0  0  0  0  0  0  0
   33.3380   37.4670   23.4860 N   0  0  0  0  0  0  0  0  0  0  0  0
   33.5090   38.8170   23.7170 C   0  0  0  0  0  0  0  0  0  0  0  0
   33.0600   39.3790   24.8890 N   0  0  0  0  0  0  0  0  0  0  0  0
   32.2130   38.6830   25.9220 C   0  0  0  0  0  0  0  0  0  0  0  0
   33.0770   40.0230   27.9740 C   0  0  0  0  0  0  0  0  0  0  0  0
   32.5970   40.5900   29.2060 O   0  0  0  0  0  0  0  0  0  0  0  0
   31.2590   35.6900   27.1060 O   0  0  0  0  0  0  0  0  0  0  0  0
   35.9150   36.1190   14.7590 H   0  0  0  0  0  0  0  0  0  0  0  0
   33.9380   37.6090   26.7260 H   0  0  0  0  0  0  0  0  0  0  0  0
   32.9100   36.6510   25.5860 H   0  0  0  0  0  0  0  0  0  0  0  0
   32.8980   36.1180   28.1980 H   0  0  0  0  0  0  0  0  0  0  0  0
   31.5940   37.4070   28.2350 H   0  0  0  0  0  0  0  0  0  0  0  0
   31.5740   40.6650   26.5460 H   0  0  0  0  0  0  0  0  0  0  0  0
   31.0460   39.3300   27.6330 H   0  0  0  0  0  0  0  0  0  0  0  0
   32.0250   35.1620   23.3050 H   0  0  0  0  0  0  0  0  0  0  0  0
   32.9320   33.6740   22.7540 H   0  0  0  0  0  0  0  0  0  0  0  0
   33.5960   34.7020   24.1140 H   0  0  0  0  0  0  0  0  0  0  0  0
   39.3930   37.0720   17.1910 H   0  0  0  0  0  0  0  0  0  0  0  0
   38.2290   36.2450   19.2270 H   0  0  0  0  0  0  0  0  0  0  0  0
   35.8280   37.7850   19.6070 H   0  0  0  0  0  0  0  0  0  0  0  0
   35.1730   39.8190   20.9890 H   0  0  0  0  0  0  0  0  0  0  0  0
   33.2110   40.3970   25.0380 H   0  0  0  0  0  0  0  0  0  0  0  0
   31.2320   38.4090   25.4380 H   0  0  0  0  0  0  0  0  0  0  0  0
   33.5870   39.0970   28.3220 H   0  0  0  0  0  0  0  0  0  0  0  0
   33.7910   40.7310   27.4970 H   0  0  0  0  0  0  0  0  0  0  0  0
   32.2850   41.5310   29.0300 H   0  0  0  0  0  0  0  0  0  0  0  0
   30.3290   36.1300   26.9880 H   0  0  0  0  0  0  0  0  0  0  0  0
  1  2  2  0  0  0  0
  1  8  1  0  0  0  0
  1 30  1  0  0  0  0
  2  9  1  0  0  0  0
  2 10  1  0  0  0  0
  3  4  1  0  0  0  0
  3 26  1  0  0  0  0
  3 31  1  0  0  0  0
  3 32  1  0  0  0  0
  4 29  1  0  0  0  0
  4 33  1  0  0  0  0
  4 34  1  0  0  0  0
  5 26  1  0  0  0  0
  5 27  1  0  0  0  0
  5 35  1  0  0  0  0
  5 36  1  0  0  0  0
  6 21  1  0  0  0  0
  6 37  1  0  0  0  0
  6 38  1  0  0  0  0
  6 39  1  0  0  0  0
  7  8  1  0  0  0  0
  8 12  2  0  0  0  0
 10 11  2  0  0  0  0
 10 40  1  0  0  0  0
 11 12  1  0  0  0  0
 11 41  1  0  0  0  0
 12 13  1  0  0  0  0
 13 14  1  0  0  0  0
 14 15  2  0  0  0  0
 14 19  1  0  0  0  0
 15 16  1  0  0  0  0
 15 42  1  0  0  0  0
 16 17  2  0  0  0  0
 16 22  1  0  0  0  0
 17 18  1  0  0  0  0
 17 43  1  0  0  0  0
 18 24  2  0  0  0  0
 19 20  2  0  0  0  0
 19 21  1  0  0  0  0
 21 22  1  0  0  0  0
 22 23  2  0  0  0  0
 23 24  1  0  0  0  0
 24 25  1  0  0  0  0
 25 26  1  0  0  0  0
 25 44  1  0  0  0  0
 26 45  1  0  0  0  0
 27 28  1  0  0  0  0
 27 46  1  0  0  0  0
 27 47  1  0  0  0  0
 28 48  1  0  0  0  0
 29 49  1  0  0  0  0
M  END
$$$$
