23486
 OpenBabel02232411173D
Structure written by MMmdl.
 60 63  0  0  0  0  0  0  0  0999 V2000
   42.3390   18.0260   12.6210 O   0  0  0  0  0  0  0  0  0  0  0  0
   41.2040   17.6840   12.9670 C   0  0  0  0  0  0  0  0  0  0  0  0
   40.1400   18.3070   12.7560 O   0  5  0  0  0  0  0  0  0  0  0  0
   41.0340   16.3300   13.7230 C   0  0  0  0  0  0  0  0  0  0  0  0
   42.4120   15.8390   13.7360 O   0  0  0  0  0  0  0  0  0  0  0  0
   42.6770   14.9420   14.7220 C   0  0  0  0  0  0  0  0  0  0  0  0
   42.1030   13.6120   14.7360 C   0  0  0  0  0  0  0  0  0  0  0  0
   40.9970   13.1510   13.5130 Cl  0  0  0  0  0  0  0  0  0  0  0  0
   42.5470   12.8030   15.7490 C   0  0  0  0  0  0  0  0  0  0  0  0
   42.1330   11.4590   16.0850 C   0  0  0  0  0  0  0  0  0  0  0  0
   42.9770   10.5320   16.7400 C   0  0  0  0  0  0  0  0  0  0  0  0
   42.5260    9.2390   16.9830 C   0  0  0  0  0  0  0  0  0  0  0  0
   41.2640    8.7980   16.5520 C   0  0  0  0  0  0  0  0  0  0  0  0
   40.4160    9.7110   15.9140 C   0  0  0  0  0  0  0  0  0  0  0  0
   39.0700    9.4460   15.5090 N   0  0  0  0  0  0  0  0  0  0  0  0
   38.5840    8.0720   15.2250 C   0  0  0  0  0  0  0  0  0  0  0  0
   37.0700    8.0740   15.5620 C   0  0  0  0  0  0  0  0  0  0  0  0
   36.4260    6.7300   15.1870 C   0  0  0  0  0  0  0  0  0  0  0  0
   36.6210    6.4890   13.7230 N   0  0  0  0  0  0  0  0  0  0  0  0
   35.4850    5.4780   12.9660 S   0  0  0  0  0  0  0  0  0  0  0  0
   35.4210    5.8750   11.5500 O   0  0  0  0  0  0  0  0  0  0  0  0
   34.2100    5.6300   13.6620 O   0  0  0  0  0  0  0  0  0  0  0  0
   35.9980    3.8070   13.1830 C   0  0  0  0  0  0  0  0  0  0  0  0
   36.7540    3.1760   12.0630 C   0  0  0  0  0  0  0  0  0  0  0  0
   38.0310    2.6460   12.3040 C   0  0  0  0  0  0  0  0  0  0  0  0
   38.6850    1.9080   11.3130 C   0  0  0  0  0  0  0  0  0  0  0  0
   38.0890    1.7310   10.0610 C   0  0  0  0  0  0  0  0  0  0  0  0
   36.8370    2.3000    9.8020 C   0  0  0  0  0  0  0  0  0  0  0  0
   36.1620    3.0060   10.8000 C   0  0  0  0  0  0  0  0  0  0  0  0
   38.0730    6.3600   13.3940 C   0  0  0  0  0  0  0  0  0  0  0  0
   38.7960    7.6760   13.7370 C   0  0  0  0  0  0  0  0  0  0  0  0
   40.8420   11.0470   15.7350 C   0  0  0  0  0  0  0  0  0  0  0  0
   43.7440   13.6900   16.6660 S   0  0  0  0  0  0  0  0  0  0  0  0
   43.5980   15.1540   15.7130 C   0  0  0  0  0  0  0  0  0  0  0  0
   44.4070   16.4000   16.0780 C   0  0  0  0  0  0  0  0  0  0  0  0
   45.1120   16.2900   17.1070 O   0  0  0  0  0  0  0  0  0  0  0  0
   44.3420   17.3900   15.3490 O   0  5  0  0  0  0  0  0  0  0  0  0
   40.4040   15.6230   13.1470 H   0  0  0  0  0  0  0  0  0  0  0  0
   40.6380   16.4580   14.7510 H   0  0  0  0  0  0  0  0  0  0  0  0
   43.9840   10.8080   17.0570 H   0  0  0  0  0  0  0  0  0  0  0  0
   43.1660    8.5280   17.5110 H   0  0  0  0  0  0  0  0  0  0  0  0
   40.9730    7.7640   16.7200 H   0  0  0  0  0  0  0  0  0  0  0  0
   38.7450   10.0940   14.7550 H   0  0  0  0  0  0  0  0  0  0  0  0
   39.0970    7.3200   15.8770 H   0  0  0  0  0  0  0  0  0  0  0  0
   36.9360    8.2330   16.6590 H   0  0  0  0  0  0  0  0  0  0  0  0
   36.5590    8.8900   15.0010 H   0  0  0  0  0  0  0  0  0  0  0  0
   36.8940    5.9030   15.7920 H   0  0  0  0  0  0  0  0  0  0  0  0
   35.3310    6.7710   15.4220 H   0  0  0  0  0  0  0  0  0  0  0  0
   36.5980    3.7190   14.1390 H   0  0  0  0  0  0  0  0  0  0  0  0
   35.0920    3.1590   13.3850 H   0  0  0  0  0  0  0  0  0  0  0  0
   38.5170    2.7820   13.2750 H   0  0  0  0  0  0  0  0  0  0  0  0
   39.6540    1.4590   11.5340 H   0  0  0  0  0  0  0  0  0  0  0  0
   38.5880    1.1370    9.2960 H   0  0  0  0  0  0  0  0  0  0  0  0
   36.3790    2.1600    8.8220 H   0  0  0  0  0  0  0  0  0  0  0  0
   35.1630    3.3980   10.6040 H   0  0  0  0  0  0  0  0  0  0  0  0
   38.5400    5.5190   13.9840 H   0  0  0  0  0  0  0  0  0  0  0  0
   38.1920    6.1440   12.3040 H   0  0  0  0  0  0  0  0  0  0  0  0
   38.4080    8.4900   13.0830 H   0  0  0  0  0  0  0  0  0  0  0  0
   39.8870    7.5320   13.5540 H   0  0  0  0  0  0  0  0  0  0  0  0
   40.1210   11.7580   15.3360 H   0  0  0  0  0  0  0  0  0  0  0  0
  1  2  2  0  0  0  0
  2  3  1  0  0  0  0
  2  4  1  0  0  0  0
  4  5  1  0  0  0  0
  4 38  1  0  0  0  0
  4 39  1  0  0  0  0
  5  6  1  0  0  0  0
  6 34  2  0  0  0  0
  6  7  1  0  0  0  0
  7  8  1  0  0  0  0
  7  9  2  0  0  0  0
  9 10  1  0  0  0  0
  9 33  1  0  0  0  0
 10 32  2  0  0  0  0
 10 11  1  0  0  0  0
 11 12  2  0  0  0  0
 11 40  1  0  0  0  0
 12 13  1  0  0  0  0
 12 41  1  0  0  0  0
 13 14  2  0  0  0  0
 13 42  1  0  0  0  0
 14 15  1  0  0  0  0
 14 32  1  0  0  0  0
 15 16  1  0  0  0  0
 15 43  1  0  0  0  0
 16 31  1  0  0  0  0
 16 17  1  0  0  0  0
 16 44  1  0  0  0  0
 17 18  1  0  0  0  0
 17 45  1  0  0  0  0
 17 46  1  0  0  0  0
 18 19  1  0  0  0  0
 18 47  1  0  0  0  0
 18 48  1  0  0  0  0
 19 20  1  0  0  0  0
 19 30  1  0  0  0  0
 20 21  2  0  0  0  0
 20 22  2  0  0  0  0
 20 23  1  0  0  0  0
 23 24  1  0  0  0  0
 23 49  1  0  0  0  0
 23 50  1  0  0  0  0
 24 29  2  0  0  0  0
 24 25  1  0  0  0  0
 25 26  2  0  0  0  0
 25 51  1  0  0  0  0
 26 27  1  0  0  0  0
 26 52  1  0  0  0  0
 27 28  2  0  0  0  0
 27 53  1  0  0  0  0
 28 29  1  0  0  0  0
 28 54  1  0  0  0  0
 29 55  1  0  0  0  0
 30 31  1  0  0  0  0
 30 56  1  0  0  0  0
 30 57  1  0  0  0  0
 31 58  1  0  0  0  0
 31 59  1  0  0  0  0
 32 60  1  0  0  0  0
 33 34  1  0  0  0  0
 34 35  1  0  0  0  0
 35 36  2  0  0  0  0
 35 37  1  0  0  0  0
M  CHG  2   3  -1  37  -1
M  END
$$$$
