p38a_2u
 OpenBabel04222415263D
Structure written by MMmdl.
 64 68  0  0  0  0  0  0  0  0999 V2000
   38.2960   36.5490   17.1550 C   0  0  0  0  0  0  0  0  0  0  0  0
   34.6050   35.1030   21.2850 C   0  0  0  0  0  0  0  0  0  0  0  0
   37.5310   36.0980   18.2270 C   0  0  0  0  0  0  0  0  0  0  0  0
   34.0240   39.2180   23.7640 C   0  0  0  0  0  0  0  0  0  0  0  0
   34.6490   37.9810   21.3820 C   0  0  0  0  0  0  0  0  0  0  0  0
   35.0500   37.3130   20.1740 C   0  0  0  0  0  0  0  0  0  0  0  0
   37.6310   36.6900   15.9300 C   0  0  0  0  0  0  0  0  0  0  0  0
   36.2820   36.3760   15.7450 C   0  0  0  0  0  0  0  0  0  0  0  0
   35.5390   35.9100   16.8340 C   0  0  0  0  0  0  0  0  0  0  0  0
   34.3140   37.2200   22.5420 C   0  0  0  0  0  0  0  0  0  0  0  0
   34.5940   39.3960   21.4970 C   0  0  0  0  0  0  0  0  0  0  0  0
   35.0680   35.9620   20.1590 C   0  0  0  0  0  0  0  0  0  0  0  0
   36.1700   35.7600   18.0730 C   0  0  0  0  0  0  0  0  0  0  0  0
   38.0810   35.9810   19.4290 F   0  0  0  0  0  0  0  0  0  0  0  0
   35.4730   35.1330   19.1140 O   0  0  0  0  0  0  0  0  0  0  0  0
   34.2950   40.0280   22.6420 N   0  0  0  0  0  0  0  0  0  0  0  0
   34.5090   33.8960   21.2240 O   0  0  0  0  0  0  0  0  0  0  0  0
   34.2660   35.8100   22.4910 N   0  0  0  0  0  0  0  0  0  0  0  0
   34.0320   37.8370   23.7340 N   0  0  0  0  0  0  0  0  0  0  0  0
   33.6700   39.8520   24.9330 N   0  0  0  0  0  0  0  0  0  0  0  0
   39.3500   36.8180   17.2740 H   0  0  0  0  0  0  0  0  0  0  0  0
   35.3400   37.9230   19.3170 H   0  0  0  0  0  0  0  0  0  0  0  0
   35.7970   36.5050   14.7750 H   0  0  0  0  0  0  0  0  0  0  0  0
   34.4750   35.6810   16.7120 H   0  0  0  0  0  0  0  0  0  0  0  0
   34.8010   40.0260   20.6150 H   0  0  0  0  0  0  0  0  0  0  0  0
   33.7630   40.8840   25.0020 H   0  0  0  0  0  0  0  0  0  0  0  0
   38.3110   37.1850   14.8990 F   0  0  0  0  0  0  0  0  0  0  0  0
   32.4820   39.1740   28.4990 C   0  0  0  0  0  0  0  0  0  0  0  0
   32.4840   39.7810   27.0910 C   0  0  0  0  0  0  0  0  0  0  0  0
   33.6020   39.1350   26.2440 C   0  0  0  0  0  0  0  0  0  0  0  0
   34.9600   39.2390   26.9740 C   0  0  0  0  0  0  0  0  0  0  0  0
   34.8380   38.6650   28.3910 C   0  0  0  0  0  0  0  0  0  0  0  0
   33.7740   39.3000   29.1360 O   0  0  0  0  0  0  0  0  0  0  0  0
   32.1950   38.0970   28.4670 H   0  0  0  0  0  0  0  0  0  0  0  0
   31.8220   39.7530   29.1850 H   0  0  0  0  0  0  0  0  0  0  0  0
   32.6480   40.8820   27.1590 H   0  0  0  0  0  0  0  0  0  0  0  0
   31.4950   39.6020   26.6040 H   0  0  0  0  0  0  0  0  0  0  0  0
   33.3490   38.0530   26.0630 H   0  0  0  0  0  0  0  0  0  0  0  0
   35.7350   38.6670   26.4110 H   0  0  0  0  0  0  0  0  0  0  0  0
   35.2780   40.3090   27.0250 H   0  0  0  0  0  0  0  0  0  0  0  0
   34.6510   37.5660   28.3590 H   0  0  0  0  0  0  0  0  0  0  0  0
   35.7360   38.9110   29.0030 H   0  0  0  0  0  0  0  0  0  0  0  0
   34.4890   33.5370   25.6050 C   0  0  0  0  0  0  0  0  0  0  0  0
   34.9780   34.2010   24.3000 C   0  0  0  0  0  0  0  0  0  0  0  0
   33.8240   35.0430   23.7190 C   0  0  0  0  0  0  0  0  0  0  0  0
   32.6250   34.1280   23.4110 C   0  0  0  0  0  0  0  0  0  0  0  0
   32.1680   33.4340   24.7110 C   0  0  0  0  0  0  0  0  0  0  0  0
   35.3110   32.8870   25.9960 H   0  0  0  0  0  0  0  0  0  0  0  0
   34.2480   34.3430   26.3530 H   0  0  0  0  0  0  0  0  0  0  0  0
   35.8480   34.8560   24.5330 H   0  0  0  0  0  0  0  0  0  0  0  0
   35.2770   33.4110   23.5720 H   0  0  0  0  0  0  0  0  0  0  0  0
   33.4960   35.7930   24.4980 H   0  0  0  0  0  0  0  0  0  0  0  0
   31.7690   34.7210   23.0110 H   0  0  0  0  0  0  0  0  0  0  0  0
   32.9060   33.3440   22.6660 H   0  0  0  0  0  0  0  0  0  0  0  0
   31.7500   34.2090   25.4090 H   0  0  0  0  0  0  0  0  0  0  0  0
   31.3540   32.7110   24.4360 H   0  0  0  0  0  0  0  0  0  0  0  0
   33.2930   32.6750   25.3440 N   0  0  0  0  0  0  0  0  0  0  0  0
   32.8440   31.5640   26.5890 S   0  0  0  0  0  0  0  0  0  0  0  0
   32.1500   32.2380   27.7000 O   0  0  0  0  0  0  0  0  0  0  0  0
   34.1000   30.9220   27.0130 O   0  0  0  0  0  0  0  0  0  0  0  0
   31.7980   30.4330   25.8110 C   0  0  0  0  0  0  0  0  0  0  0  0
   32.1680   30.1450   24.7880 H   0  0  0  0  0  0  0  0  0  0  0  0
   31.7050   29.4740   26.3880 H   0  0  0  0  0  0  0  0  0  0  0  0
   30.7520   30.8130   25.6710 H   0  0  0  0  0  0  0  0  0  0  0  0
  1  3  2  0  0  0  0
  1  7  1  0  0  0  0
  1 21  1  0  0  0  0
  2 12  1  0  0  0  0
  2 17  2  0  0  0  0
  2 18  1  0  0  0  0
  3 13  1  0  0  0  0
  3 14  1  0  0  0  0
  4 16  2  0  0  0  0
  4 19  1  0  0  0  0
  4 20  1  0  0  0  0
  5  6  1  0  0  0  0
  5 10  1  0  0  0  0
  5 11  2  0  0  0  0
  6 12  2  0  0  0  0
  6 22  1  0  0  0  0
  7  8  2  0  0  0  0
  7 27  1  0  0  0  0
  8  9  1  0  0  0  0
  8 23  1  0  0  0  0
  9 13  2  0  0  0  0
  9 24  1  0  0  0  0
 10 18  1  0  0  0  0
 10 19  2  0  0  0  0
 11 16  1  0  0  0  0
 11 25  1  0  0  0  0
 12 15  1  0  0  0  0
 13 15  1  0  0  0  0
 18 45  1  0  0  0  0
 20 26  1  0  0  0  0
 20 30  1  0  0  0  0
 28 29  1  0  0  0  0
 28 33  1  0  0  0  0
 28 34  1  0  0  0  0
 28 35  1  0  0  0  0
 29 30  1  0  0  0  0
 29 36  1  0  0  0  0
 29 37  1  0  0  0  0
 30 31  1  0  0  0  0
 30 38  1  0  0  0  0
 31 32  1  0  0  0  0
 31 39  1  0  0  0  0
 31 40  1  0  0  0  0
 32 33  1  0  0  0  0
 32 41  1  0  0  0  0
 32 42  1  0  0  0  0
 43 44  1  0  0  0  0
 43 48  1  0  0  0  0
 43 49  1  0  0  0  0
 43 57  1  0  0  0  0
 44 45  1  0  0  0  0
 44 50  1  0  0  0  0
 44 51  1  0  0  0  0
 45 46  1  0  0  0  0
 45 52  1  0  0  0  0
 46 47  1  0  0  0  0
 46 53  1  0  0  0  0
 46 54  1  0  0  0  0
 47 55  1  0  0  0  0
 47 56  1  0  0  0  0
 47 57  1  0  0  0  0
 57 58  1  0  0  0  0
 58 59  2  0  0  0  0
 58 60  2  0  0  0  0
 58 61  1  0  0  0  0
 61 62  1  0  0  0  0
 61 63  1  0  0  0  0
 61 64  1  0  0  0  0
M  END
$$$$
