47
 OpenBabel02232411163D
Structure written by MMmdl.
 43 46  0  0  0  0  0  0  0  0999 V2000
    4.2020  -50.2030    6.3850 O   0  0  0  0  0  0  0  0  0  0  0  0
    3.3780  -49.3650    6.7990 C   0  0  0  0  0  0  0  0  0  0  0  0
    3.6190  -48.3080    7.3930 O   0  5  0  0  0  0  0  0  0  0  0  0
    1.9030  -49.7300    6.5360 C   0  0  0  0  0  0  0  0  0  0  0  0
    0.0820  -51.1130    6.5470 C   0  0  0  0  0  0  0  0  0  0  0  0
   -0.8470  -52.1400    6.7850 C   0  0  0  0  0  0  0  0  0  0  0  0
   -2.1440  -51.9480    6.3320 C   0  0  0  0  0  0  0  0  0  0  0  0
   -2.5020  -50.7810    5.6180 C   0  0  0  0  0  0  0  0  0  0  0  0
   -1.5780  -49.7820    5.3460 C   0  0  0  0  0  0  0  0  0  0  0  0
   -0.2740  -49.8980    5.8540 C   0  0  0  0  0  0  0  0  0  0  0  0
    0.8820  -49.0260    5.9040 C   0  0  0  0  0  0  0  0  0  0  0  0
    0.8870  -47.6070    5.4540 C   0  0  0  0  0  0  0  0  0  0  0  0
    0.2540  -46.6530    6.4950 C   0  0  0  0  0  0  0  0  0  0  0  0
   -1.2050  -47.0340    6.7190 C   0  0  0  0  0  0  0  0  0  0  0  0
   -1.7290  -46.1910    7.8130 O   0  0  0  0  0  0  0  0  0  0  0  0
   -3.0360  -45.8060    7.6690 C   0  0  0  0  0  0  0  0  0  0  0  0
   -5.1890  -45.7130    8.7850 C   0  0  0  0  0  0  0  0  0  0  0  0
   -3.8860  -46.1200    8.7870 C   0  0  0  0  0  0  0  0  0  0  0  0
   -0.5710  -53.0510    7.3170 H   0  0  0  0  0  0  0  0  0  0  0  0
   -2.9090  -52.7020    6.5240 H   0  0  0  0  0  0  0  0  0  0  0  0
   -3.5330  -50.6680    5.2790 H   0  0  0  0  0  0  0  0  0  0  0  0
   -1.8770  -48.9240    4.7430 H   0  0  0  0  0  0  0  0  0  0  0  0
    0.2990  -47.5150    4.5090 H   0  0  0  0  0  0  0  0  0  0  0  0
    1.9300  -47.2570    5.2540 H   0  0  0  0  0  0  0  0  0  0  0  0
    0.8060  -46.7150    7.4620 H   0  0  0  0  0  0  0  0  0  0  0  0
    0.3110  -45.6030    6.1260 H   0  0  0  0  0  0  0  0  0  0  0  0
   -1.3190  -48.0530    7.1560 H   0  0  0  0  0  0  0  0  0  0  0  0
   -1.8190  -46.8940    5.8060 H   0  0  0  0  0  0  0  0  0  0  0  0
   -3.4680  -46.6890    9.6230 H   0  0  0  0  0  0  0  0  0  0  0  0
   -3.5120  -45.1290    6.5660 C   0  0  0  0  0  0  0  0  0  0  0  0
   -5.8630  -45.9430    9.6180 H   0  0  0  0  0  0  0  0  0  0  0  0
   -4.8650  -44.6940    6.5500 C   0  0  0  0  0  0  0  0  0  0  0  0
   -5.7160  -44.9930    7.6560 C   0  0  0  0  0  0  0  0  0  0  0  0
   -7.0600  -44.6500    7.6600 N   0  0  0  0  0  0  0  0  0  0  0  0
   -7.5570  -44.0360    6.5880 C   0  0  0  0  0  0  0  0  0  0  0  0
   -6.7630  -43.6830    5.4490 C   0  0  0  0  0  0  0  0  0  0  0  0
   -5.4300  -44.0030    5.4320 C   0  0  0  0  0  0  0  0  0  0  0  0
   -8.6280  -43.7990    6.5850 H   0  0  0  0  0  0  0  0  0  0  0  0
   -7.2330  -43.1720    4.6170 H   0  0  0  0  0  0  0  0  0  0  0  0
   -4.7960  -43.7500    4.5780 H   0  0  0  0  0  0  0  0  0  0  0  0
   -2.8980  -44.9150    5.6940 H   0  0  0  0  0  0  0  0  0  0  0  0
    1.4260  -50.9930    6.9320 N   0  0  0  0  0  0  0  0  0  0  0  0
    1.9410  -51.7330    7.3970 H   0  0  0  0  0  0  0  0  0  0  0  0
  1  2  2  0  0  0  0
  2  3  1  0  0  0  0
  2  4  1  0  0  0  0
  4 11  2  0  0  0  0
  4 42  1  0  0  0  0
  5  6  2  0  0  0  0
  5 10  1  0  0  0  0
  5 42  1  0  0  0  0
  6  7  1  0  0  0  0
  6 19  1  0  0  0  0
  7  8  2  0  0  0  0
  7 20  1  0  0  0  0
  8  9  1  0  0  0  0
  8 21  1  0  0  0  0
  9 10  2  0  0  0  0
  9 22  1  0  0  0  0
 10 11  1  0  0  0  0
 11 12  1  0  0  0  0
 12 23  1  0  0  0  0
 12 24  1  0  0  0  0
 12 13  1  0  0  0  0
 13 14  1  0  0  0  0
 13 25  1  0  0  0  0
 13 26  1  0  0  0  0
 14 15  1  0  0  0  0
 14 27  1  0  0  0  0
 14 28  1  0  0  0  0
 15 16  1  0  0  0  0
 16 18  2  0  0  0  0
 16 30  1  0  0  0  0
 17 18  1  0  0  0  0
 17 31  1  0  0  0  0
 17 33  2  0  0  0  0
 18 29  1  0  0  0  0
 30 32  2  0  0  0  0
 30 41  1  0  0  0  0
 32 33  1  0  0  0  0
 32 37  1  0  0  0  0
 33 34  1  0  0  0  0
 34 35  2  0  0  0  0
 35 36  1  0  0  0  0
 35 38  1  0  0  0  0
 36 37  2  0  0  0  0
 36 39  1  0  0  0  0
 37 40  1  0  0  0  0
 42 43  1  0  0  0  0
M  CHG  1   3  -1
M  END
$$$$
