p38a_2h
 OpenBabel02232411163D
Structure written by MMmdl.
 46 49  0  0  0  0  0  0  0  0999 V2000
   32.4860   39.6860   27.2260 C   0  0  0  0  0  0  0  0  0  0  0  0
   33.3370   40.5540   28.1620 C   0  0  0  0  0  0  0  0  0  0  0  0
   35.2840   39.1820   27.8510 C   0  0  0  0  0  0  0  0  0  0  0  0
   34.5300   38.1760   26.9810 C   0  0  0  0  0  0  0  0  0  0  0  0
   38.3640   36.3800   17.4180 C   0  0  0  0  0  0  0  0  0  0  0  0
   34.3920   39.8080   28.8030 O   0  0  0  0  0  0  0  0  0  0  0  0
   34.3350   35.0550   21.1300 C   0  0  0  0  0  0  0  0  0  0  0  0
   37.2670   35.9260   18.1500 C   0  0  0  0  0  0  0  0  0  0  0  0
   34.0210   39.0450   23.8680 C   0  0  0  0  0  0  0  0  0  0  0  0
   33.3160   38.8070   26.2680 C   0  0  0  0  0  0  0  0  0  0  0  0
   34.4860   37.9170   21.3880 C   0  0  0  0  0  0  0  0  0  0  0  0
   34.6600   37.2960   20.1110 C   0  0  0  0  0  0  0  0  0  0  0  0
   38.1530   36.7260   16.0790 C   0  0  0  0  0  0  0  0  0  0  0  0
   36.8850   36.6130   15.5020 C   0  0  0  0  0  0  0  0  0  0  0  0
   35.7980   36.1520   16.2540 C   0  0  0  0  0  0  0  0  0  0  0  0
   34.2020   37.1080   22.5340 C   0  0  0  0  0  0  0  0  0  0  0  0
   34.5520   39.3260   21.5970 C   0  0  0  0  0  0  0  0  0  0  0  0
   34.5750   35.9450   19.9950 C   0  0  0  0  0  0  0  0  0  0  0  0
   35.9900   35.7980   17.5930 C   0  0  0  0  0  0  0  0  0  0  0  0
   33.8860   34.9010   23.6290 C   0  0  0  0  0  0  0  0  0  0  0  0
   37.4230   35.5860   19.4260 F   0  0  0  0  0  0  0  0  0  0  0  0
   34.6340   35.1120   18.4580 S   0  0  0  0  0  0  0  0  0  0  0  0
   34.3380   39.9010   22.7850 N   0  0  0  0  0  0  0  0  0  0  0  0
   34.2680   33.8430   21.1170 O   0  0  0  0  0  0  0  0  0  0  0  0
   34.1520   35.7210   22.4130 N   0  0  0  0  0  0  0  0  0  0  0  0
   33.9700   37.6680   23.7670 N   0  0  0  0  0  0  0  0  0  0  0  0
   33.7320   39.6200   25.0780 N   0  0  0  0  0  0  0  0  0  0  0  0
   31.8420   39.0030   27.8350 H   0  0  0  0  0  0  0  0  0  0  0  0
   31.8110   40.3540   26.6360 H   0  0  0  0  0  0  0  0  0  0  0  0
   33.7960   41.4030   27.6080 H   0  0  0  0  0  0  0  0  0  0  0  0
   32.7350   40.9150   29.0270 H   0  0  0  0  0  0  0  0  0  0  0  0
   36.0190   38.6760   28.5180 H   0  0  0  0  0  0  0  0  0  0  0  0
   35.7610   39.9740   27.2310 H   0  0  0  0  0  0  0  0  0  0  0  0
   35.2300   37.7310   26.2320 H   0  0  0  0  0  0  0  0  0  0  0  0
   34.1480   37.3370   27.6170 H   0  0  0  0  0  0  0  0  0  0  0  0
   39.3540   36.4970   17.8620 H   0  0  0  0  0  0  0  0  0  0  0  0
   32.6510   37.9720   25.8950 H   0  0  0  0  0  0  0  0  0  0  0  0
   34.8600   37.9450   19.2500 H   0  0  0  0  0  0  0  0  0  0  0  0
   36.7310   36.9070   14.4640 H   0  0  0  0  0  0  0  0  0  0  0  0
   34.8100   36.0890   15.7870 H   0  0  0  0  0  0  0  0  0  0  0  0
   34.7830   39.9950   20.7480 H   0  0  0  0  0  0  0  0  0  0  0  0
   34.6310   35.1500   24.4330 H   0  0  0  0  0  0  0  0  0  0  0  0
   32.8570   35.1230   24.0230 H   0  0  0  0  0  0  0  0  0  0  0  0
   33.9610   33.8100   23.3860 H   0  0  0  0  0  0  0  0  0  0  0  0
   33.7860   40.6500   25.1940 H   0  0  0  0  0  0  0  0  0  0  0  0
   38.9790   37.1100   15.4850 H   0  0  0  0  0  0  0  0  0  0  0  0
  1  2  1  0  0  0  0
  1 10  1  0  0  0  0
  1 28  1  0  0  0  0
  1 29  1  0  0  0  0
  2  6  1  0  0  0  0
  2 30  1  0  0  0  0
  2 31  1  0  0  0  0
  3  4  1  0  0  0  0
  3  6  1  0  0  0  0
  3 32  1  0  0  0  0
  3 33  1  0  0  0  0
  4 10  1  0  0  0  0
  4 34  1  0  0  0  0
  4 35  1  0  0  0  0
  5  8  2  0  0  0  0
  5 13  1  0  0  0  0
  5 36  1  0  0  0  0
  7 18  1  0  0  0  0
  7 24  2  0  0  0  0
  7 25  1  0  0  0  0
  8 19  1  0  0  0  0
  8 21  1  0  0  0  0
  9 23  2  0  0  0  0
  9 26  1  0  0  0  0
  9 27  1  0  0  0  0
 10 27  1  0  0  0  0
 10 37  1  0  0  0  0
 11 12  1  0  0  0  0
 11 16  1  0  0  0  0
 11 17  2  0  0  0  0
 12 18  2  0  0  0  0
 12 38  1  0  0  0  0
 13 14  2  0  0  0  0
 13 46  1  0  0  0  0
 14 15  1  0  0  0  0
 14 39  1  0  0  0  0
 15 19  2  0  0  0  0
 15 40  1  0  0  0  0
 16 25  1  0  0  0  0
 16 26  2  0  0  0  0
 17 23  1  0  0  0  0
 17 41  1  0  0  0  0
 18 22  1  0  0  0  0
 19 22  1  0  0  0  0
 20 25  1  0  0  0  0
 20 42  1  0  0  0  0
 20 43  1  0  0  0  0
 20 44  1  0  0  0  0
 27 45  1  0  0  0  0
M  END
$$$$
