18632-1
 OpenBabel02232411163D
Structure written by MMmdl.
 42 43  0  0  0  0  0  0  0  0999 V2000
   23.7840   12.7520   30.3560 C   0  0  0  0  0  0  0  0  0  0  0  0
   23.3520   11.3000   30.4270 C   0  0  0  0  0  0  0  0  0  0  0  0
   22.1100   11.3610   31.2410 O   0  0  0  0  0  0  0  0  0  0  0  0
   21.5020   10.2050   31.5790 C   0  0  0  0  0  0  0  0  0  0  0  0
   22.0020    9.0290   31.1320 N   0  0  0  0  0  0  0  0  0  0  0  0
   21.2970    7.8750   31.4430 C   0  0  0  0  0  0  0  0  0  0  0  0
   20.1430    7.8850   32.2200 C   0  0  0  0  0  0  0  0  0  0  0  0
   19.6340    9.1230   32.6980 C   0  0  0  0  0  0  0  0  0  0  0  0
   18.4910    9.1440   33.4560 N   0  0  0  0  0  0  0  0  0  0  0  0
   20.3170   10.3360   32.3630 C   0  0  0  0  0  0  0  0  0  0  0  0
   19.8740   11.6260   32.7220 C   0  0  0  0  0  0  0  0  0  0  0  0
   19.5610   12.7150   32.9730 N   0  0  0  0  0  0  0  0  0  0  0  0
   21.8860    6.7270   30.8600 N   0  0  0  0  0  0  0  0  0  0  0  0
   21.3450    5.4170   30.8160 C   0  0  0  0  0  0  0  0  0  0  0  0
   20.3060    5.1240   31.3680 O   0  0  0  0  0  0  0  0  0  0  0  0
   22.1620    4.4550   29.9680 C   0  0  0  0  0  0  0  0  0  0  0  0
   23.4080    3.9860   30.6780 C   0  0  0  0  0  0  0  0  0  0  0  0
   23.3780    2.8000   31.4260 C   0  0  0  0  0  0  0  0  0  0  0  0
   24.5420    2.3980   32.0920 C   0  0  0  0  0  0  0  0  0  0  0  0
   24.6690    1.2790   32.8810 O   0  0  0  0  0  0  0  0  0  0  0  0
   23.5970    0.3010   32.8620 C   0  0  0  0  0  0  0  0  0  0  0  0
   25.7360    3.1490   32.0260 C   0  0  0  0  0  0  0  0  0  0  0  0
   25.7450    4.3080   31.2590 C   0  0  0  0  0  0  0  0  0  0  0  0
   24.5900    4.7270   30.5800 C   0  0  0  0  0  0  0  0  0  0  0  0
   24.6870   12.8250   29.6990 H   0  0  0  0  0  0  0  0  0  0  0  0
   24.0430   13.1490   31.3630 H   0  0  0  0  0  0  0  0  0  0  0  0
   22.9800   13.3870   29.9140 H   0  0  0  0  0  0  0  0  0  0  0  0
   24.0890   10.6580   30.9600 H   0  0  0  0  0  0  0  0  0  0  0  0
   23.0780   10.8850   29.4310 H   0  0  0  0  0  0  0  0  0  0  0  0
   19.6110    6.9610   32.4540 H   0  0  0  0  0  0  0  0  0  0  0  0
   17.9960    8.2660   33.7070 H   0  0  0  0  0  0  0  0  0  0  0  0
   18.0750   10.0230   33.7660 H   0  0  0  0  0  0  0  0  0  0  0  0
   22.7860    6.9020   30.3680 H   0  0  0  0  0  0  0  0  0  0  0  0
   21.5150    3.5750   29.7120 H   0  0  0  0  0  0  0  0  0  0  0  0
   22.4500    4.9570   29.0040 H   0  0  0  0  0  0  0  0  0  0  0  0
   22.4670    2.2090   31.4860 H   0  0  0  0  0  0  0  0  0  0  0  0
   23.9930   -0.4800   33.5550 H   0  0  0  0  0  0  0  0  0  0  0  0
   23.4770   -0.1000   31.8320 H   0  0  0  0  0  0  0  0  0  0  0  0
   22.6550    0.7430   33.2510 H   0  0  0  0  0  0  0  0  0  0  0  0
   26.6330    2.8210   32.5560 H   0  0  0  0  0  0  0  0  0  0  0  0
   26.6620    4.9000   31.1730 H   0  0  0  0  0  0  0  0  0  0  0  0
   24.6440    5.6290   29.9690 H   0  0  0  0  0  0  0  0  0  0  0  0
  1  2  1  0  0  0  0
  1 25  1  0  0  0  0
  1 26  1  0  0  0  0
  1 27  1  0  0  0  0
  2  3  1  0  0  0  0
  2 28  1  0  0  0  0
  2 29  1  0  0  0  0
  3  4  1  0  0  0  0
  4 10  2  0  0  0  0
  4  5  1  0  0  0  0
  5  6  2  0  0  0  0
  6  7  1  0  0  0  0
  6 13  1  0  0  0  0
  7  8  2  0  0  0  0
  7 30  1  0  0  0  0
  8  9  1  0  0  0  0
  8 10  1  0  0  0  0
  9 31  1  0  0  0  0
  9 32  1  0  0  0  0
 10 11  1  0  0  0  0
 11 12  3  0  0  0  0
 13 14  1  0  0  0  0
 13 33  1  0  0  0  0
 14 15  2  0  0  0  0
 14 16  1  0  0  0  0
 16 17  1  0  0  0  0
 16 34  1  0  0  0  0
 16 35  1  0  0  0  0
 17 24  2  0  0  0  0
 17 18  1  0  0  0  0
 18 19  2  0  0  0  0
 18 36  1  0  0  0  0
 19 20  1  0  0  0  0
 19 22  1  0  0  0  0
 20 21  1  0  0  0  0
 21 37  1  0  0  0  0
 21 38  1  0  0  0  0
 21 39  1  0  0  0  0
 22 23  2  0  0  0  0
 22 40  1  0  0  0  0
 23 24  1  0  0  0  0
 23 41  1  0  0  0  0
 24 42  1  0  0  0  0
M  END
$$$$
