20667
                    3D
 Schrodinger Suite 2022-3.
 60 63  0  0  1  0  0  0  0  0999 V2000
   43.6770   13.7210   16.6470 S   0  0  0  0  0  0  0  0  0  0  0  0
   43.5630   15.1300   15.6100 C   0  0  0  0  0  0  0  0  0  0  0  0
   42.6490   14.8750   14.6220 C   0  0  0  0  0  0  0  0  0  0  0  0
   42.0300   13.5710   14.7250 C   0  0  0  0  0  0  0  0  0  0  0  0
   42.4540   12.8130   15.7850 C   0  0  0  0  0  0  0  0  0  0  0  0
   44.3790   16.3970   15.9010 C   0  0  0  0  0  0  0  0  0  0  0  0
   45.1760   16.3070   16.8600 O   0  0  0  0  0  0  0  0  0  0  0  0
   44.1940   17.3960   15.2040 O   0  5  0  0  0  0  0  0  0  0  0  0
   42.0230   11.4770   16.1530 C   0  0  0  0  0  0  0  0  0  0  0  0
   40.7000   11.0960   15.8900 C   0  0  0  0  0  0  0  0  0  0  0  0
   40.2880    9.7460   15.9720 C   0  0  0  0  0  0  0  0  0  0  0  0
   41.1700    8.7930   16.4970 C   0  0  0  0  0  0  0  0  0  0  0  0
   42.4510    9.2080   16.8960 C   0  0  0  0  0  0  0  0  0  0  0  0
   42.8970   10.5120   16.7030 C   0  0  0  0  0  0  0  0  0  0  0  0
   40.7640   12.9900   13.4240 Br  0  0  0  0  0  0  0  0  0  0  0  0
   42.4340   15.7110   13.5720 O   0  0  0  0  0  0  0  0  0  0  0  0
   41.1020   16.3170   13.5570 C   0  0  0  0  0  0  0  0  0  0  0  0
   41.3690   17.6690   12.8330 C   0  0  0  0  0  0  0  0  0  0  0  0
   40.3580   18.3940   12.7100 O   0  5  0  0  0  0  0  0  0  0  0  0
   42.5060   17.9230   12.4210 O   0  0  0  0  0  0  0  0  0  0  0  0
   38.9330    9.4840   15.5760 N   0  0  0  0  0  0  0  0  0  0  0  0
   38.4980    8.1300   15.1350 C   0  0  0  0  0  0  0  0  0  0  0  0
   36.9590    8.2010   14.9430 C   0  0  0  0  0  0  0  0  0  0  0  0
   36.3950    6.8770   14.3970 C   0  0  0  0  0  0  0  0  0  0  0  0
   37.0650    6.5180   13.1080 N   0  0  1  0  0  0  0  0  0  0  0  0
   38.5410    6.3590   13.3010 C   0  0  0  0  0  0  0  0  0  0  0  0
   39.1450    7.6840   13.7960 C   0  0  0  0  0  0  0  0  0  0  0  0
   36.2580    5.3560   12.1510 S   0  0  0  0  0  0  0  0  0  0  0  0
   37.1480    4.9420   11.0710 O   0  0  0  0  0  0  0  0  0  0  0  0
   35.0490    6.0010   11.6230 O   0  0  0  0  0  0  0  0  0  0  0  0
   35.8800    3.9860   13.1940 C   0  0  0  0  0  0  0  0  0  0  0  0
   35.5520    2.7630   12.4000 C   0  0  0  0  0  0  0  0  0  0  0  0
   36.5690    2.0620   11.7260 C   0  0  0  0  0  0  0  0  0  0  0  0
   36.2550    0.9390   10.9580 C   0  0  0  0  0  0  0  0  0  0  0  0
   34.9340    0.4860   10.8780 C   0  0  0  0  0  0  0  0  0  0  0  0
   33.9290    1.1560   11.5810 C   0  0  0  0  0  0  0  0  0  0  0  0
   34.2320    2.2940   12.3330 C   0  0  0  0  0  0  0  0  0  0  0  0
   39.9520   11.8410   15.6150 H   0  0  0  0  0  0  0  0  0  0  0  0
   40.8860    7.7480   16.5970 H   0  0  0  0  0  0  0  0  0  0  0  0
   43.1160    8.4670   17.3450 H   0  0  0  0  0  0  0  0  0  0  0  0
   43.9240   10.7650   16.9740 H   0  0  0  0  0  0  0  0  0  0  0  0
   40.7010   16.4550   14.5830 H   0  0  0  0  0  0  0  0  0  0  0  0
   40.4300   15.6630   12.9630 H   0  0  0  0  0  0  0  0  0  0  0  0
   38.5990   10.1850   14.8710 H   0  0  0  0  0  0  0  0  0  0  0  0
   38.7360    7.3790   15.9300 H   0  0  0  0  0  0  0  0  0  0  0  0
   36.7070    9.0220   14.2300 H   0  0  0  0  0  0  0  0  0  0  0  0
   36.4740    8.3990   15.9280 H   0  0  0  0  0  0  0  0  0  0  0  0
   35.2970    7.0040   14.2200 H   0  0  0  0  0  0  0  0  0  0  0  0
   36.5520    6.0720   15.1700 H   0  0  0  0  0  0  0  0  0  0  0  0
   39.0130    6.0850   12.3230 H   0  0  0  0  0  0  0  0  0  0  0  0
   38.7590    5.5510   14.0560 H   0  0  0  0  0  0  0  0  0  0  0  0
   40.2390    7.5340   13.9460 H   0  0  0  0  0  0  0  0  0  0  0  0
   38.9680    8.4740   13.0340 H   0  0  0  0  0  0  0  0  0  0  0  0
   35.0390    4.2350   13.9030 H   0  0  0  0  0  0  0  0  0  0  0  0
   36.7480    3.7570   13.8830 H   0  0  0  0  0  0  0  0  0  0  0  0
   37.6120    2.3900   11.8010 H   0  0  0  0  0  0  0  0  0  0  0  0
   37.0430    0.4040   10.4200 H   0  0  0  0  0  0  0  0  0  0  0  0
   34.6840   -0.3860   10.2700 H   0  0  0  0  0  0  0  0  0  0  0  0
   32.8980    0.7940   11.5360 H   0  0  0  0  0  0  0  0  0  0  0  0
   33.4290    2.8050   12.8710 H   0  0  0  0  0  0  0  0  0  0  0  0
  1  2  1  0  0  0  0
  1  5  1  0  0  0  0
  2  3  2  0  0  0  0
  2  6  1  0  0  0  0
  3  4  1  0  0  0  0
  3 16  1  0  0  0  0
  4  5  2  0  0  0  0
  4 15  1  0  0  0  0
  5  9  1  0  0  0  0
  6  7  2  0  0  0  0
  6  8  1  0  0  0  0
  9 10  1  0  0  0  0
  9 14  2  0  0  0  0
 10 11  2  0  0  0  0
 10 38  1  0  0  0  0
 11 12  1  0  0  0  0
 11 21  1  0  0  0  0
 12 13  2  0  0  0  0
 12 39  1  0  0  0  0
 13 14  1  0  0  0  0
 13 40  1  0  0  0  0
 14 41  1  0  0  0  0
 16 17  1  0  0  0  0
 17 18  1  0  0  0  0
 17 42  1  0  0  0  0
 17 43  1  0  0  0  0
 18 19  1  0  0  0  0
 18 20  2  0  0  0  0
 21 22  1  0  0  0  0
 21 44  1  0  0  0  0
 22 23  1  0  0  0  0
 22 27  1  0  0  0  0
 22 45  1  0  0  0  0
 23 24  1  0  0  0  0
 23 46  1  0  0  0  0
 23 47  1  0  0  0  0
 24 25  1  0  0  0  0
 24 48  1  0  0  0  0
 24 49  1  0  0  0  0
 25 26  1  0  0  0  0
 25 28  1  0  0  0  0
 26 27  1  0  0  0  0
 26 50  1  0  0  0  0
 26 51  1  0  0  0  0
 27 52  1  0  0  0  0
 27 53  1  0  0  0  0
 28 29  2  0  0  0  0
 28 30  2  0  0  0  0
 28 31  1  0  0  0  0
 31 32  1  0  0  0  0
 31 54  1  0  0  0  0
 31 55  1  0  0  0  0
 32 33  2  0  0  0  0
 32 37  1  0  0  0  0
 33 34  1  0  0  0  0
 33 56  1  0  0  0  0
 34 35  2  0  0  0  0
 34 57  1  0  0  0  0
 35 36  1  0  0  0  0
 35 58  1  0  0  0  0
 36 37  2  0  0  0  0
 36 59  1  0  0  0  0
 37 60  1  0  0  0  0
M  CHG  2   8  -1  19  -1
M  END
$$$$
