p38a_2m
 OpenBabel02232411163D
Structure written by MMmdl.
 50 54  0  0  0  0  0  0  0  0999 V2000
   36.3730   36.0240   15.8340 C   0  0  0  0  0  0  0  0  0  0  0  0
   34.5000   35.0430   21.3560 C   0  0  0  0  0  0  0  0  0  0  0  0
   35.7010   35.5580   16.9600 C   0  0  0  0  0  0  0  0  0  0  0  0
   34.0770   39.1510   23.8870 C   0  0  0  0  0  0  0  0  0  0  0  0
   34.7410   37.9070   21.5140 C   0  0  0  0  0  0  0  0  0  0  0  0
   35.2000   37.2280   20.3330 C   0  0  0  0  0  0  0  0  0  0  0  0
   37.6630   36.5310   16.0420 C   0  0  0  0  0  0  0  0  0  0  0  0
   38.2910   36.5490   17.2900 C   0  0  0  0  0  0  0  0  0  0  0  0
   37.5810   36.1090   18.4130 C   0  0  0  0  0  0  0  0  0  0  0  0
   34.2580   37.1680   22.6330 C   0  0  0  0  0  0  0  0  0  0  0  0
   34.7610   39.3220   21.6440 C   0  0  0  0  0  0  0  0  0  0  0  0
   35.1200   35.8790   20.2900 C   0  0  0  0  0  0  0  0  0  0  0  0
   36.2840   35.6160   18.2430 C   0  0  0  0  0  0  0  0  0  0  0  0
   34.4890   35.0310   16.8510 F   0  0  0  0  0  0  0  0  0  0  0  0
   35.5380   35.0260   19.2700 O   0  0  0  0  0  0  0  0  0  0  0  0
   34.4340   39.9530   22.7790 N   0  0  0  0  0  0  0  0  0  0  0  0
   34.3210   33.8490   21.2790 O   0  0  0  0  0  0  0  0  0  0  0  0
   34.1000   35.7710   22.5350 N   0  0  0  0  0  0  0  0  0  0  0  0
   33.9390   37.7790   23.8210 N   0  0  0  0  0  0  0  0  0  0  0  0
   33.9110   39.8270   25.0730 N   0  0  0  0  0  0  0  0  0  0  0  0
   35.9130   36.0180   14.8430 H   0  0  0  0  0  0  0  0  0  0  0  0
   35.6160   37.8300   19.5220 H   0  0  0  0  0  0  0  0  0  0  0  0
   39.3110   36.9270   17.3970 H   0  0  0  0  0  0  0  0  0  0  0  0
   38.0370   36.1740   19.4030 H   0  0  0  0  0  0  0  0  0  0  0  0
   35.0450   39.9470   20.7820 H   0  0  0  0  0  0  0  0  0  0  0  0
   33.9050   40.8690   25.0450 H   0  0  0  0  0  0  0  0  0  0  0  0
   38.3040   37.0520   14.9980 F   0  0  0  0  0  0  0  0  0  0  0  0
   33.7450   37.7000   28.2800 C   0  0  0  0  0  0  0  0  0  0  0  0
   34.2920   38.1510   26.9190 C   0  0  0  0  0  0  0  0  0  0  0  0
   33.4070   39.2840   26.3690 C   0  0  0  0  0  0  0  0  0  0  0  0
   31.9370   38.8250   26.2920 C   0  0  0  0  0  0  0  0  0  0  0  0
   31.4870   38.3360   27.6760 C   0  0  0  0  0  0  0  0  0  0  0  0
   32.3560   37.3040   28.1960 O   0  0  0  0  0  0  0  0  0  0  0  0
   33.8440   38.5070   29.0420 H   0  0  0  0  0  0  0  0  0  0  0  0
   34.2380   36.7580   28.6170 H   0  0  0  0  0  0  0  0  0  0  0  0
   34.2920   37.2820   26.2150 H   0  0  0  0  0  0  0  0  0  0  0  0
   35.3420   38.5100   27.0380 H   0  0  0  0  0  0  0  0  0  0  0  0
   33.4730   40.1690   27.0740 H   0  0  0  0  0  0  0  0  0  0  0  0
   31.2890   39.6720   25.9650 H   0  0  0  0  0  0  0  0  0  0  0  0
   31.8340   37.9950   25.5530 H   0  0  0  0  0  0  0  0  0  0  0  0
   31.4560   39.1760   28.4060 H   0  0  0  0  0  0  0  0  0  0  0  0
   30.5070   37.8090   27.6170 H   0  0  0  0  0  0  0  0  0  0  0  0
   33.5330   35.0370   23.6870 C   0  0  0  0  0  0  0  0  0  0  0  0
   32.4370   33.9990   23.4730 C   0  0  0  0  0  0  0  0  0  0  0  0
   32.1000   35.3200   24.1290 C   0  0  0  0  0  0  0  0  0  0  0  0
   34.3010   34.8620   24.4650 H   0  0  0  0  0  0  0  0  0  0  0  0
   32.0420   33.7970   22.4700 H   0  0  0  0  0  0  0  0  0  0  0  0
   32.4760   33.0910   24.0960 H   0  0  0  0  0  0  0  0  0  0  0  0
   31.4870   36.0490   23.5850 H   0  0  0  0  0  0  0  0  0  0  0  0
   31.9000   35.3530   25.2110 H   0  0  0  0  0  0  0  0  0  0  0  0
  1  3  2  0  0  0  0
  1  7  1  0  0  0  0
  1 21  1  0  0  0  0
  2 12  1  0  0  0  0
  2 17  2  0  0  0  0
  2 18  1  0  0  0  0
  3 13  1  0  0  0  0
  3 14  1  0  0  0  0
  4 16  2  0  0  0  0
  4 19  1  0  0  0  0
  4 20  1  0  0  0  0
  5  6  1  0  0  0  0
  5 10  1  0  0  0  0
  5 11  2  0  0  0  0
  6 12  2  0  0  0  0
  6 22  1  0  0  0  0
  7  8  2  0  0  0  0
  7 27  1  0  0  0  0
  8  9  1  0  0  0  0
  8 23  1  0  0  0  0
  9 13  2  0  0  0  0
  9 24  1  0  0  0  0
 10 18  1  0  0  0  0
 10 19  2  0  0  0  0
 11 16  1  0  0  0  0
 11 25  1  0  0  0  0
 12 15  1  0  0  0  0
 13 15  1  0  0  0  0
 18 43  1  0  0  0  0
 20 26  1  0  0  0  0
 20 30  1  0  0  0  0
 28 29  1  0  0  0  0
 28 33  1  0  0  0  0
 28 34  1  0  0  0  0
 28 35  1  0  0  0  0
 29 30  1  0  0  0  0
 29 36  1  0  0  0  0
 29 37  1  0  0  0  0
 30 31  1  0  0  0  0
 30 38  1  0  0  0  0
 31 32  1  0  0  0  0
 31 39  1  0  0  0  0
 31 40  1  0  0  0  0
 32 33  1  0  0  0  0
 32 41  1  0  0  0  0
 32 42  1  0  0  0  0
 43 44  1  0  0  0  0
 43 45  1  0  0  0  0
 43 46  1  0  0  0  0
 44 45  1  0  0  0  0
 44 47  1  0  0  0  0
 44 48  1  0  0  0  0
 45 49  1  0  0  0  0
 45 50  1  0  0  0  0
M  END
$$$$
