CAT-17d
 OpenBabel02232411143D
Structure written by MMmdl.
 42 45  0  0  1  0  0  0  0  0999 V2000
   11.6180   -2.3670    1.2530 C   0  0  0  0  0  0  0  0  0  0  0  0
   12.9670   -2.2930    0.6540 N   0  0  0  0  0  0  0  0  0  0  0  0
   14.1530   -2.3100    1.3780 C   0  0  0  0  0  0  0  0  0  0  0  0
   14.2970   -2.4460    2.7280 N   0  0  0  0  0  0  0  0  0  0  0  0
   15.2480   -2.2160    0.5040 N   0  3  0  0  0  0  0  0  0  0  0  0
   14.8030   -2.5350   -0.9040 C   0  0  1  0  0  0  0  0  0  0  0  0
   15.3930   -1.5210   -1.8610 C   0  0  0  0  0  0  0  0  0  0  0  0
   16.2940   -1.9160   -2.8570 C   0  0  0  0  0  0  0  0  0  0  0  0
   16.7480   -0.9770   -3.7880 C   0  0  0  0  0  0  0  0  0  0  0  0
   16.3240    0.3510   -3.7210 C   0  0  0  0  0  0  0  0  0  0  0  0
   15.4650    0.7670   -2.6880 C   0  0  0  0  0  0  0  0  0  0  0  0
   15.0420    2.1760   -2.5810 C   0  0  0  0  0  0  0  0  0  0  0  0
   14.4990    2.8600   -3.6820 C   0  0  0  0  0  0  0  0  0  0  0  0
   14.0590    4.1740   -3.5170 C   0  0  0  0  0  0  0  0  0  0  0  0
   14.1700    4.7780   -2.2540 C   0  0  0  0  0  0  0  0  0  0  0  0
   14.7330    4.1450   -1.1900 N   0  0  0  0  0  0  0  0  0  0  0  0
   15.1600    2.8680   -1.3540 C   0  0  0  0  0  0  0  0  0  0  0  0
   15.0000   -0.1770   -1.7600 C   0  0  0  0  0  0  0  0  0  0  0  0
   15.0250   -3.9930   -1.2800 C   0  0  0  0  0  0  0  0  0  0  0  0
   16.2560   -4.7450   -0.8050 C   0  0  0  0  0  0  0  0  0  0  0  0
   14.8990   -5.1030   -0.2420 C   0  0  0  0  0  0  0  0  0  0  0  0
   13.2500   -2.3650   -0.7980 C   0  0  0  0  0  0  0  0  0  0  0  0
   12.3870   -2.3010   -1.6110 O   0  0  0  0  0  0  0  0  0  0  0  0
   11.0920   -1.3860    1.1010 H   0  0  0  0  0  0  0  0  0  0  0  0
   11.0380   -3.1920    0.7550 H   0  0  0  0  0  0  0  0  0  0  0  0
   11.6750   -2.5920    2.3500 H   0  0  0  0  0  0  0  0  0  0  0  0
   13.5820   -2.0690    3.3980 H   0  0  0  0  0  0  0  0  0  0  0  0
   16.1770   -2.5780    0.8610 H   0  0  0  0  0  0  0  0  0  0  0  0
   16.6440   -2.9490   -2.9100 H   0  0  0  0  0  0  0  0  0  0  0  0
   17.4420   -1.2890   -4.5750 H   0  0  0  0  0  0  0  0  0  0  0  0
   16.6660    1.0640   -4.4780 H   0  0  0  0  0  0  0  0  0  0  0  0
   14.4110    2.3650   -4.6550 H   0  0  0  0  0  0  0  0  0  0  0  0
   13.6230    4.7220   -4.3600 H   0  0  0  0  0  0  0  0  0  0  0  0
   13.7890    5.7970   -2.0790 H   0  0  0  0  0  0  0  0  0  0  0  0
   15.6110    2.3760   -0.4790 H   0  0  0  0  0  0  0  0  0  0  0  0
   14.3340    0.1280   -0.9530 H   0  0  0  0  0  0  0  0  0  0  0  0
   14.6580   -4.2130   -2.3000 H   0  0  0  0  0  0  0  0  0  0  0  0
   16.9820   -4.2330   -0.1690 H   0  0  0  0  0  0  0  0  0  0  0  0
   16.7640   -5.4100   -1.5030 H   0  0  0  0  0  0  0  0  0  0  0  0
   14.6790   -4.8490    0.8020 H   0  0  0  0  0  0  0  0  0  0  0  0
   14.4130   -6.0400   -0.5450 H   0  0  0  0  0  0  0  0  0  0  0  0
   15.2770   -2.3890    3.1310 H   0  0  0  0  0  0  0  0  0  0  0  0
  1  2  1  0  0  0  0
  1 24  1  0  0  0  0
  1 25  1  0  0  0  0
  1 26  1  0  0  0  0
  2  3  1  0  0  0  0
  2 22  1  0  0  0  0
  3  4  1  0  0  0  0
  3  5  2  0  0  0  0
  4 27  1  0  0  0  0
  4 42  1  0  0  0  0
  5  6  1  0  0  0  0
  5 28  1  0  0  0  0
  6  7  1  6  0  0  0
  6 19  1  0  0  0  0
  6 22  1  0  0  0  0
  7  8  2  0  0  0  0
  7 18  1  0  0  0  0
  8  9  1  0  0  0  0
  8 29  1  0  0  0  0
  9 10  2  0  0  0  0
  9 30  1  0  0  0  0
 10 11  1  0  0  0  0
 10 31  1  0  0  0  0
 11 12  1  0  0  0  0
 11 18  2  0  0  0  0
 12 13  2  0  0  0  0
 12 17  1  0  0  0  0
 13 14  1  0  0  0  0
 13 32  1  0  0  0  0
 14 15  2  0  0  0  0
 14 33  1  0  0  0  0
 15 16  1  0  0  0  0
 15 34  1  0  0  0  0
 16 17  2  0  0  0  0
 17 35  1  0  0  0  0
 18 36  1  0  0  0  0
 19 20  1  0  0  0  0
 19 21  1  0  0  0  0
 19 37  1  0  0  0  0
 20 21  1  0  0  0  0
 20 38  1  0  0  0  0
 20 39  1  0  0  0  0
 21 40  1  0  0  0  0
 21 41  1  0  0  0  0
 22 23  2  0  0  0  0
M  CHG  1   5   1
M  END
$$$$
