p38a_3flw
 OpenBabel02232411163D
Structure written by MMmdl.
 49 51  0  0  0  0  0  0  0  0999 V2000
   38.2490   36.5150   17.2090 C   0  0  0  0  0  0  0  0  0  0  0  0
   37.6110   36.6820   15.9730 C   0  0  0  0  0  0  0  0  0  0  0  0
   31.7760   38.5470   26.0230 C   0  0  0  0  0  0  0  0  0  0  0  0
   31.4050   38.0730   27.4400 C   0  0  0  0  0  0  0  0  0  0  0  0
   34.1930   39.2200   26.6660 C   0  0  0  0  0  0  0  0  0  0  0  0
   33.4160   35.2700   23.5790 C   0  0  0  0  0  0  0  0  0  0  0  0
   37.9720   35.9340   19.4740 F   0  0  0  0  0  0  0  0  0  0  0  0
   37.4500   36.0810   18.2640 C   0  0  0  0  0  0  0  0  0  0  0  0
   38.3250   37.1630   14.9580 F   0  0  0  0  0  0  0  0  0  0  0  0
   36.2570   36.4100   15.7610 C   0  0  0  0  0  0  0  0  0  0  0  0
   35.4790   35.9630   16.8340 C   0  0  0  0  0  0  0  0  0  0  0  0
   36.0810   35.7910   18.0830 C   0  0  0  0  0  0  0  0  0  0  0  0
   35.3520   35.1910   19.1210 O   0  0  0  0  0  0  0  0  0  0  0  0
   34.9020   36.0530   20.1190 C   0  0  0  0  0  0  0  0  0  0  0  0
   34.9030   37.4060   20.1020 C   0  0  0  0  0  0  0  0  0  0  0  0
   34.4210   38.1130   21.2560 C   0  0  0  0  0  0  0  0  0  0  0  0
   34.4000   39.5310   21.3380 C   0  0  0  0  0  0  0  0  0  0  0  0
   34.0110   40.1900   22.4380 N   0  0  0  0  0  0  0  0  0  0  0  0
   34.3760   35.2330   21.2430 C   0  0  0  0  0  0  0  0  0  0  0  0
   34.3030   34.0230   21.2560 O   0  0  0  0  0  0  0  0  0  0  0  0
   33.9310   35.9920   22.3820 N   0  0  0  0  0  0  0  0  0  0  0  0
   33.9620   37.3960   22.3990 C   0  0  0  0  0  0  0  0  0  0  0  0
   33.5520   38.0430   23.5430 N   0  0  0  0  0  0  0  0  0  0  0  0
   33.5790   39.4170   23.5370 C   0  0  0  0  0  0  0  0  0  0  0  0
   33.0940   40.1470   24.6090 N   0  0  0  0  0  0  0  0  0  0  0  0
   32.8640   39.6290   25.9930 C   0  0  0  0  0  0  0  0  0  0  0  0
   34.7590   40.3550   27.5270 C   0  0  0  0  0  0  0  0  0  0  0  0
   33.8590   40.6420   28.6230 O   0  0  0  0  0  0  0  0  0  0  0  0
   31.4270   39.1060   28.4310 O   0  0  0  0  0  0  0  0  0  0  0  0
   39.3090   36.7520   17.3460 H   0  0  0  0  0  0  0  0  0  0  0  0
   32.1090   37.6470   25.4430 H   0  0  0  0  0  0  0  0  0  0  0  0
   30.8670   38.9610   25.5210 H   0  0  0  0  0  0  0  0  0  0  0  0
   30.3430   37.7310   27.4600 H   0  0  0  0  0  0  0  0  0  0  0  0
   32.0920   37.2600   27.7730 H   0  0  0  0  0  0  0  0  0  0  0  0
   34.0370   38.3150   27.3030 H   0  0  0  0  0  0  0  0  0  0  0  0
   34.9540   38.9340   25.8990 H   0  0  0  0  0  0  0  0  0  0  0  0
   33.9960   35.5750   24.4920 H   0  0  0  0  0  0  0  0  0  0  0  0
   32.3340   35.5280   23.7430 H   0  0  0  0  0  0  0  0  0  0  0  0
   33.5110   34.1620   23.4380 H   0  0  0  0  0  0  0  0  0  0  0  0
   35.7960   36.5560   14.7810 H   0  0  0  0  0  0  0  0  0  0  0  0
   34.4110   35.7670   16.6890 H   0  0  0  0  0  0  0  0  0  0  0  0
   35.2660   37.9900   19.2540 H   0  0  0  0  0  0  0  0  0  0  0  0
   34.7150   40.1370   20.4720 H   0  0  0  0  0  0  0  0  0  0  0  0
   33.3540   41.1560   24.6320 H   0  0  0  0  0  0  0  0  0  0  0  0
   32.4480   40.5340   26.5410 H   0  0  0  0  0  0  0  0  0  0  0  0
   35.6960   40.0320   28.0400 H   0  0  0  0  0  0  0  0  0  0  0  0
   34.9150   41.2810   26.9320 H   0  0  0  0  0  0  0  0  0  0  0  0
   33.2490   41.3970   28.3550 H   0  0  0  0  0  0  0  0  0  0  0  0
   32.3070   39.5690   28.4210 H   0  0  0  0  0  0  0  0  0  0  0  0
  1  2  2  0  0  0  0
  1  8  1  0  0  0  0
  1 30  1  0  0  0  0
  2  9  1  0  0  0  0
  2 10  1  0  0  0  0
  3  4  1  0  0  0  0
  3 26  1  0  0  0  0
  3 31  1  0  0  0  0
  3 32  1  0  0  0  0
  4 29  1  0  0  0  0
  4 33  1  0  0  0  0
  4 34  1  0  0  0  0
  5 26  1  0  0  0  0
  5 27  1  0  0  0  0
  5 35  1  0  0  0  0
  5 36  1  0  0  0  0
  6 21  1  0  0  0  0
  6 37  1  0  0  0  0
  6 38  1  0  0  0  0
  6 39  1  0  0  0  0
  7  8  1  0  0  0  0
  8 12  2  0  0  0  0
 10 11  2  0  0  0  0
 10 40  1  0  0  0  0
 11 12  1  0  0  0  0
 11 41  1  0  0  0  0
 12 13  1  0  0  0  0
 13 14  1  0  0  0  0
 14 15  2  0  0  0  0
 14 19  1  0  0  0  0
 15 16  1  0  0  0  0
 15 42  1  0  0  0  0
 16 17  2  0  0  0  0
 16 22  1  0  0  0  0
 17 18  1  0  0  0  0
 17 43  1  0  0  0  0
 18 24  2  0  0  0  0
 19 20  2  0  0  0  0
 19 21  1  0  0  0  0
 21 22  1  0  0  0  0
 22 23  2  0  0  0  0
 23 24  1  0  0  0  0
 24 25  1  0  0  0  0
 25 26  1  0  0  0  0
 25 44  1  0  0  0  0
 26 45  1  0  0  0  0
 27 28  1  0  0  0  0
 27 46  1  0  0  0  0
 27 47  1  0  0  0  0
 28 48  1  0  0  0  0
 29 49  1  0  0  0  0
M  END
$$$$
