p38a_3flw
 OpenBabel02232411163D
Structure written by MMmdl.
 49 51  0  0  0  0  0  0  0  0999 V2000
   36.3380   35.9670   15.9540 C   0  0  0  0  0  0  0  0  0  0  0  0
   37.6360   36.4390   16.1870 C   0  0  0  0  0  0  0  0  0  0  0  0
   34.7310   38.1100   27.0770 C   0  0  0  0  0  0  0  0  0  0  0  0
   34.0760   36.8100   27.5670 C   0  0  0  0  0  0  0  0  0  0  0  0
   33.4050   40.2170   27.7090 C   0  0  0  0  0  0  0  0  0  0  0  0
   33.7510   34.9670   23.9230 C   0  0  0  0  0  0  0  0  0  0  0  0
   34.3930   35.0670   16.9430 F   0  0  0  0  0  0  0  0  0  0  0  0
   35.6180   35.5570   17.0720 C   0  0  0  0  0  0  0  0  0  0  0  0
   38.3230   36.9140   15.1500 F   0  0  0  0  0  0  0  0  0  0  0  0
   38.2310   36.4710   17.4510 C   0  0  0  0  0  0  0  0  0  0  0  0
   37.4760   36.0820   18.5640 C   0  0  0  0  0  0  0  0  0  0  0  0
   36.1670   35.6320   18.3700 C   0  0  0  0  0  0  0  0  0  0  0  0
   35.3670   35.0850   19.3790 O   0  0  0  0  0  0  0  0  0  0  0  0
   35.0330   35.9250   20.4380 C   0  0  0  0  0  0  0  0  0  0  0  0
   35.1270   37.2720   20.5070 C   0  0  0  0  0  0  0  0  0  0  0  0
   34.7250   37.9290   21.7230 C   0  0  0  0  0  0  0  0  0  0  0  0
   34.7350   39.3430   21.8650 C   0  0  0  0  0  0  0  0  0  0  0  0
   34.4570   39.9630   23.0190 N   0  0  0  0  0  0  0  0  0  0  0  0
   34.4680   35.0790   21.5220 C   0  0  0  0  0  0  0  0  0  0  0  0
   34.2400   33.8930   21.4390 O   0  0  0  0  0  0  0  0  0  0  0  0
   34.1790   35.7780   22.7510 N   0  0  0  0  0  0  0  0  0  0  0  0
   34.3070   37.1710   22.8580 C   0  0  0  0  0  0  0  0  0  0  0  0
   34.0160   37.7760   24.0600 N   0  0  0  0  0  0  0  0  0  0  0  0
   34.1630   39.1500   24.1350 C   0  0  0  0  0  0  0  0  0  0  0  0
   34.0560   39.8030   25.3420 N   0  0  0  0  0  0  0  0  0  0  0  0
   33.6740   39.1440   26.6340 C   0  0  0  0  0  0  0  0  0  0  0  0
   34.6050   41.0870   28.1130 C   0  0  0  0  0  0  0  0  0  0  0  0
   34.2880   41.8740   29.2770 O   0  0  0  0  0  0  0  0  0  0  0  0
   33.1280   36.2790   26.6250 O   0  0  0  0  0  0  0  0  0  0  0  0
   35.9070   35.9480   14.9490 H   0  0  0  0  0  0  0  0  0  0  0  0
   35.3570   38.5160   27.9080 H   0  0  0  0  0  0  0  0  0  0  0  0
   35.4250   37.8810   26.2330 H   0  0  0  0  0  0  0  0  0  0  0  0
   34.8510   36.0230   27.7200 H   0  0  0  0  0  0  0  0  0  0  0  0
   33.4810   36.9800   28.4950 H   0  0  0  0  0  0  0  0  0  0  0  0
   32.5890   40.8900   27.3480 H   0  0  0  0  0  0  0  0  0  0  0  0
   33.0300   39.6810   28.6190 H   0  0  0  0  0  0  0  0  0  0  0  0
   32.7010   35.2400   24.2120 H   0  0  0  0  0  0  0  0  0  0  0  0
   33.7800   33.8740   23.6680 H   0  0  0  0  0  0  0  0  0  0  0  0
   34.4470   35.1510   24.7860 H   0  0  0  0  0  0  0  0  0  0  0  0
   39.2590   36.8210   17.5750 H   0  0  0  0  0  0  0  0  0  0  0  0
   37.9060   36.1560   19.5650 H   0  0  0  0  0  0  0  0  0  0  0  0
   35.5060   37.8900   19.6890 H   0  0  0  0  0  0  0  0  0  0  0  0
   34.9740   39.9790   20.9950 H   0  0  0  0  0  0  0  0  0  0  0  0
   34.0090   40.8430   25.3380 H   0  0  0  0  0  0  0  0  0  0  0  0
   32.6880   38.6150   26.4630 H   0  0  0  0  0  0  0  0  0  0  0  0
   35.4750   40.4820   28.4540 H   0  0  0  0  0  0  0  0  0  0  0  0
   34.8910   41.7820   27.2930 H   0  0  0  0  0  0  0  0  0  0  0  0
   33.4330   42.3810   29.0880 H   0  0  0  0  0  0  0  0  0  0  0  0
   33.3000   36.6890   25.7400 H   0  0  0  0  0  0  0  0  0  0  0  0
  1  2  2  0  0  0  0
  1  8  1  0  0  0  0
  1 30  1  0  0  0  0
  2  9  1  0  0  0  0
  2 10  1  0  0  0  0
  3  4  1  0  0  0  0
  3 26  1  0  0  0  0
  3 31  1  0  0  0  0
  3 32  1  0  0  0  0
  4 29  1  0  0  0  0
  4 33  1  0  0  0  0
  4 34  1  0  0  0  0
  5 26  1  0  0  0  0
  5 27  1  0  0  0  0
  5 35  1  0  0  0  0
  5 36  1  0  0  0  0
  6 21  1  0  0  0  0
  6 37  1  0  0  0  0
  6 38  1  0  0  0  0
  6 39  1  0  0  0  0
  7  8  1  0  0  0  0
  8 12  2  0  0  0  0
 10 11  2  0  0  0  0
 10 40  1  0  0  0  0
 11 12  1  0  0  0  0
 11 41  1  0  0  0  0
 12 13  1  0  0  0  0
 13 14  1  0  0  0  0
 14 15  2  0  0  0  0
 14 19  1  0  0  0  0
 15 16  1  0  0  0  0
 15 42  1  0  0  0  0
 16 17  2  0  0  0  0
 16 22  1  0  0  0  0
 17 18  1  0  0  0  0
 17 43  1  0  0  0  0
 18 24  2  0  0  0  0
 19 20  2  0  0  0  0
 19 21  1  0  0  0  0
 21 22  1  0  0  0  0
 22 23  2  0  0  0  0
 23 24  1  0  0  0  0
 24 25  1  0  0  0  0
 25 26  1  0  0  0  0
 25 44  1  0  0  0  0
 26 45  1  0  0  0  0
 27 28  1  0  0  0  0
 27 46  1  0  0  0  0
 27 47  1  0  0  0  0
 28 48  1  0  0  0  0
 29 49  1  0  0  0  0
M  END
$$$$
