p38a_3flq
 OpenBabel02232411163D
Structure written by MMmdl.
 47 49  0  0  1  0  0  0  0  0999 V2000
   33.8660   39.1110   23.7960 C   0  0  0  0  0  0  0  0  0  0  0  0
   34.7140   37.9320   21.4460 C   0  0  0  0  0  0  0  0  0  0  0  0
   35.1660   37.2860   20.2440 C   0  0  0  0  0  0  0  0  0  0  0  0
   34.1470   37.1630   22.5020 C   0  0  0  0  0  0  0  0  0  0  0  0
   35.0650   35.9400   20.1510 C   0  0  0  0  0  0  0  0  0  0  0  0
   32.3860   39.2760   25.8570 C   0  0  1  0  0  0  0  0  0  0  0  0
   31.1060   39.1200   25.0170 C   0  0  0  0  0  0  0  0  0  0  0  0
   33.7720   36.4570   28.6280 C   0  0  0  0  0  0  0  0  0  0  0  0
   34.0130   35.7700   22.3690 N   0  0  0  0  0  0  0  0  0  0  0  0
   32.6880   37.9830   26.6220 C   0  0  0  0  0  0  0  0  0  0  0  0
   38.3280   37.2020   14.9050 F   0  0  0  0  0  0  0  0  0  0  0  0
   37.6450   36.7010   15.9310 C   0  0  0  0  0  0  0  0  0  0  0  0
   36.2970   36.3880   15.7400 C   0  0  0  0  0  0  0  0  0  0  0  0
   35.5490   35.9170   16.8250 C   0  0  0  0  0  0  0  0  0  0  0  0
   38.3060   36.5540   17.1580 C   0  0  0  0  0  0  0  0  0  0  0  0
   37.5380   36.0950   18.2250 C   0  0  0  0  0  0  0  0  0  0  0  0
   38.0840   35.9700   19.4270 F   0  0  0  0  0  0  0  0  0  0  0  0
   36.1760   35.7610   18.0640 C   0  0  0  0  0  0  0  0  0  0  0  0
   35.4740   35.1260   19.0980 O   0  0  0  0  0  0  0  0  0  0  0  0
   34.4590   35.0690   21.1950 C   0  0  0  0  0  0  0  0  0  0  0  0
   34.3270   33.8670   21.1160 O   0  0  0  0  0  0  0  0  0  0  0  0
   34.8090   39.3350   21.6560 C   0  0  0  0  0  0  0  0  0  0  0  0
   34.4190   39.9310   22.7910 N   0  0  0  0  0  0  0  0  0  0  0  0
   33.7200   37.7480   23.6680 N   0  0  0  0  0  0  0  0  0  0  0  0
   33.3910   35.0050   23.4840 C   0  0  0  0  0  0  0  0  0  0  0  0
   33.5220   39.7320   24.9870 N   0  0  0  0  0  0  0  0  0  0  0  0
   33.6450   38.1080   28.0910 S   0  0  0  0  0  0  0  0  0  0  0  0
   34.9880   38.6590   27.8320 O   0  0  0  0  0  0  0  0  0  0  0  0
   32.9350   38.9130   29.1160 O   0  0  0  0  0  0  0  0  0  0  0  0
   35.5810   37.9080   19.4470 H   0  0  0  0  0  0  0  0  0  0  0  0
   32.2240   40.1220   26.5900 H   0  0  0  0  0  0  0  0  0  0  0  0
   30.9160   40.0340   24.4180 H   0  0  0  0  0  0  0  0  0  0  0  0
   31.1780   38.2370   24.3400 H   0  0  0  0  0  0  0  0  0  0  0  0
   30.2350   38.9620   25.6920 H   0  0  0  0  0  0  0  0  0  0  0  0
   34.2020   36.3660   29.6550 H   0  0  0  0  0  0  0  0  0  0  0  0
   32.7690   35.9520   28.6530 H   0  0  0  0  0  0  0  0  0  0  0  0
   34.4110   35.8300   27.9510 H   0  0  0  0  0  0  0  0  0  0  0  0
   31.7020   37.4960   26.8850 H   0  0  0  0  0  0  0  0  0  0  0  0
   33.1670   37.2400   25.9160 H   0  0  0  0  0  0  0  0  0  0  0  0
   35.8160   36.5200   14.7680 H   0  0  0  0  0  0  0  0  0  0  0  0
   34.4860   35.6890   16.6970 H   0  0  0  0  0  0  0  0  0  0  0  0
   39.3580   36.8230   17.2820 H   0  0  0  0  0  0  0  0  0  0  0  0
   35.2050   39.9780   20.8540 H   0  0  0  0  0  0  0  0  0  0  0  0
   33.2750   33.9260   23.2040 H   0  0  0  0  0  0  0  0  0  0  0  0
   34.0240   35.0790   24.4100 H   0  0  0  0  0  0  0  0  0  0  0  0
   32.3770   35.4300   23.7240 H   0  0  0  0  0  0  0  0  0  0  0  0
   33.6610   40.7660   25.0250 H   0  0  0  0  0  0  0  0  0  0  0  0
  1 23  2  0  0  0  0
  1 24  1  0  0  0  0
  1 26  1  0  0  0  0
  2  3  1  0  0  0  0
  2  4  1  0  0  0  0
  2 22  2  0  0  0  0
  3  5  2  0  0  0  0
  3 30  1  0  0  0  0
  4  9  1  0  0  0  0
  4 24  2  0  0  0  0
  5 19  1  0  0  0  0
  5 20  1  0  0  0  0
  6  7  1  0  0  0  0
  6 10  1  0  0  0  0
  6 26  1  0  0  0  0
  6 31  1  6  0  0  0
  7 32  1  0  0  0  0
  7 33  1  0  0  0  0
  7 34  1  0  0  0  0
  8 27  1  0  0  0  0
  8 35  1  0  0  0  0
  8 36  1  0  0  0  0
  8 37  1  0  0  0  0
  9 20  1  0  0  0  0
  9 25  1  0  0  0  0
 10 27  1  0  0  0  0
 10 38  1  0  0  0  0
 10 39  1  0  0  0  0
 11 12  1  0  0  0  0
 12 13  2  0  0  0  0
 12 15  1  0  0  0  0
 13 14  1  0  0  0  0
 13 40  1  0  0  0  0
 14 18  2  0  0  0  0
 14 41  1  0  0  0  0
 15 16  2  0  0  0  0
 15 42  1  0  0  0  0
 16 17  1  0  0  0  0
 16 18  1  0  0  0  0
 18 19  1  0  0  0  0
 20 21  2  0  0  0  0
 22 23  1  0  0  0  0
 22 43  1  0  0  0  0
 25 44  1  0  0  0  0
 25 45  1  0  0  0  0
 25 46  1  0  0  0  0
 26 47  1  0  0  0  0
 27 28  2  0  0  0  0
 27 29  2  0  0  0  0
M  END
$$$$
