43
 OpenBabel02232411163D
Structure written by MMmdl.
 44 47  0  0  0  0  0  0  0  0999 V2000
    3.4780  -48.5000    7.1580 O   0  0  0  0  0  0  0  0  0  0  0  0
    3.0910  -49.5330    6.5900 C   0  0  0  0  0  0  0  0  0  0  0  0
    3.8110  -50.4510    6.1490 O   0  5  0  0  0  0  0  0  0  0  0  0
    1.5790  -49.7510    6.4100 C   0  0  0  0  0  0  0  0  0  0  0  0
   -0.3670  -50.9510    6.5150 C   0  0  0  0  0  0  0  0  0  0  0  0
   -1.3670  -51.9130    6.7430 C   0  0  0  0  0  0  0  0  0  0  0  0
   -2.6580  -51.5990    6.3450 C   0  0  0  0  0  0  0  0  0  0  0  0
   -2.9540  -50.3620    5.7240 C   0  0  0  0  0  0  0  0  0  0  0  0
   -1.9700  -49.4110    5.4910 C   0  0  0  0  0  0  0  0  0  0  0  0
   -0.6520  -49.6790    5.8960 C   0  0  0  0  0  0  0  0  0  0  0  0
    0.5920  -48.9410    5.8550 C   0  0  0  0  0  0  0  0  0  0  0  0
    0.7320  -47.5550    5.3320 C   0  0  0  0  0  0  0  0  0  0  0  0
    1.0930  -46.5350    6.4260 C   0  0  0  0  0  0  0  0  0  0  0  0
   -0.1000  -45.8870    7.1270 C   0  0  0  0  0  0  0  0  0  0  0  0
   -1.1640  -46.8880    7.3000 O   0  0  0  0  0  0  0  0  0  0  0  0
   -2.4180  -46.3350    7.4510 C   0  0  0  0  0  0  0  0  0  0  0  0
   -4.2160  -44.9360    6.6220 C   0  0  0  0  0  0  0  0  0  0  0  0
   -2.9680  -45.4690    6.4510 C   0  0  0  0  0  0  0  0  0  0  0  0
   -1.1440  -52.8690    7.2160 H   0  0  0  0  0  0  0  0  0  0  0  0
   -3.4680  -52.3120    6.5080 H   0  0  0  0  0  0  0  0  0  0  0  0
   -3.9840  -50.1640    5.4220 H   0  0  0  0  0  0  0  0  0  0  0  0
   -2.2280  -48.4700    5.0010 H   0  0  0  0  0  0  0  0  0  0  0  0
   -0.2270  -47.2410    4.8460 H   0  0  0  0  0  0  0  0  0  0  0  0
    1.5390  -47.5230    4.5610 H   0  0  0  0  0  0  0  0  0  0  0  0
    1.6690  -45.7070    5.9480 H   0  0  0  0  0  0  0  0  0  0  0  0
    1.7490  -47.0410    7.1850 H   0  0  0  0  0  0  0  0  0  0  0  0
    0.1400  -45.6020    8.1740 H   0  0  0  0  0  0  0  0  0  0  0  0
   -0.4890  -45.0240    6.5490 H   0  0  0  0  0  0  0  0  0  0  0  0
   -2.4160  -45.2670    5.5440 H   0  0  0  0  0  0  0  0  0  0  0  0
   -3.1450  -46.6900    8.5680 C   0  0  0  0  0  0  0  0  0  0  0  0
   -4.6470  -44.2630    5.8760 H   0  0  0  0  0  0  0  0  0  0  0  0
   -4.4560  -46.1600    8.7440 C   0  0  0  0  0  0  0  0  0  0  0  0
   -4.9990  -45.2790    7.7690 C   0  0  0  0  0  0  0  0  0  0  0  0
   -6.3320  -44.7940    7.9260 C   0  0  0  0  0  0  0  0  0  0  0  0
   -7.0600  -45.1390    9.0360 C   0  0  0  0  0  0  0  0  0  0  0  0
   -6.4880  -45.9500   10.0570 C   0  0  0  0  0  0  0  0  0  0  0  0
   -5.2320  -46.4750    9.9050 C   0  0  0  0  0  0  0  0  0  0  0  0
   -6.7700  -44.1680    7.1470 H   0  0  0  0  0  0  0  0  0  0  0  0
   -8.0920  -44.8280    9.1370 H   0  0  0  0  0  0  0  0  0  0  0  0
   -7.0850  -46.1520   10.9430 H   0  0  0  0  0  0  0  0  0  0  0  0
   -4.8140  -47.1470   10.6530 H   0  0  0  0  0  0  0  0  0  0  0  0
   -2.7450  -47.3670    9.3190 H   0  0  0  0  0  0  0  0  0  0  0  0
    1.0030  -50.9700    6.8210 N   0  0  0  0  0  0  0  0  0  0  0  0
    1.4760  -51.7690    7.2270 H   0  0  0  0  0  0  0  0  0  0  0  0
  1  2  2  0  0  0  0
  2  3  1  0  0  0  0
  2  4  1  0  0  0  0
  4 11  2  0  0  0  0
  4 43  1  0  0  0  0
  5  6  2  0  0  0  0
  5 10  1  0  0  0  0
  5 43  1  0  0  0  0
  6  7  1  0  0  0  0
  6 19  1  0  0  0  0
  7  8  2  0  0  0  0
  7 20  1  0  0  0  0
  8  9  1  0  0  0  0
  8 21  1  0  0  0  0
  9 10  2  0  0  0  0
  9 22  1  0  0  0  0
 10 11  1  0  0  0  0
 11 12  1  0  0  0  0
 12 23  1  0  0  0  0
 12 24  1  0  0  0  0
 12 13  1  0  0  0  0
 13 14  1  0  0  0  0
 13 25  1  0  0  0  0
 13 26  1  0  0  0  0
 14 15  1  0  0  0  0
 14 27  1  0  0  0  0
 14 28  1  0  0  0  0
 15 16  1  0  0  0  0
 16 18  2  0  0  0  0
 16 30  1  0  0  0  0
 17 18  1  0  0  0  0
 17 31  1  0  0  0  0
 17 33  2  0  0  0  0
 18 29  1  0  0  0  0
 30 32  2  0  0  0  0
 30 42  1  0  0  0  0
 32 33  1  0  0  0  0
 32 37  1  0  0  0  0
 33 34  1  0  0  0  0
 34 35  2  0  0  0  0
 34 38  1  0  0  0  0
 35 36  1  0  0  0  0
 35 39  1  0  0  0  0
 36 37  2  0  0  0  0
 36 40  1  0  0  0  0
 37 41  1  0  0  0  0
 43 44  1  0  0  0  0
M  CHG  1   3  -1
M  END
$$$$
