p38a_2ee
 OpenBabel02232411163D
Structure written by MMmdl.
 52 55  0  0  0  0  0  0  0  0999 V2000
   36.3990   36.0850   15.7510 C   0  0  0  0  0  0  0  0  0  0  0  0
   34.4710   34.9540   21.1740 C   0  0  0  0  0  0  0  0  0  0  0  0
   35.7610   35.5850   16.8820 C   0  0  0  0  0  0  0  0  0  0  0  0
   33.8790   38.9580   23.8260 C   0  0  0  0  0  0  0  0  0  0  0  0
   34.7520   37.8070   21.4730 C   0  0  0  0  0  0  0  0  0  0  0  0
   35.2880   37.1650   20.3020 C   0  0  0  0  0  0  0  0  0  0  0  0
   37.6880   36.6020   15.9390 C   0  0  0  0  0  0  0  0  0  0  0  0
   38.3450   36.6060   17.1720 C   0  0  0  0  0  0  0  0  0  0  0  0
   37.6670   36.1330   18.3020 C   0  0  0  0  0  0  0  0  0  0  0  0
   34.1470   37.0280   22.5030 C   0  0  0  0  0  0  0  0  0  0  0  0
   34.8130   39.2100   21.6880 C   0  0  0  0  0  0  0  0  0  0  0  0
   35.1810   35.8200   20.1920 C   0  0  0  0  0  0  0  0  0  0  0  0
   36.3740   35.6260   18.1520 C   0  0  0  0  0  0  0  0  0  0  0  0
   33.3150   34.8650   23.4180 C   0  0  0  0  0  0  0  0  0  0  0  0
   34.5550   35.0420   16.7920 F   0  0  0  0  0  0  0  0  0  0  0  0
   35.6690   34.9940   19.1830 O   0  0  0  0  0  0  0  0  0  0  0  0
   34.4010   39.7990   22.8200 N   0  0  0  0  0  0  0  0  0  0  0  0
   34.2830   33.7640   21.0460 O   0  0  0  0  0  0  0  0  0  0  0  0
   33.9910   35.6410   22.3410 N   0  0  0  0  0  0  0  0  0  0  0  0
   33.7080   37.5940   23.6720 N   0  0  0  0  0  0  0  0  0  0  0  0
   33.5290   39.5350   25.0220 N   0  0  0  0  0  0  0  0  0  0  0  0
   35.9140   36.0950   14.7730 H   0  0  0  0  0  0  0  0  0  0  0  0
   35.7740   37.7910   19.5510 H   0  0  0  0  0  0  0  0  0  0  0  0
   39.3600   36.9980   17.2670 H   0  0  0  0  0  0  0  0  0  0  0  0
   38.1450   36.1900   19.2840 H   0  0  0  0  0  0  0  0  0  0  0  0
   35.2120   39.8680   20.8990 H   0  0  0  0  0  0  0  0  0  0  0  0
   33.8830   34.9740   24.3830 H   0  0  0  0  0  0  0  0  0  0  0  0
   32.2740   35.2590   23.5770 H   0  0  0  0  0  0  0  0  0  0  0  0
   33.2610   33.7810   23.1430 H   0  0  0  0  0  0  0  0  0  0  0  0
   33.6340   40.5590   25.1520 H   0  0  0  0  0  0  0  0  0  0  0  0
   38.2980   37.1480   14.8900 F   0  0  0  0  0  0  0  0  0  0  0  0
   33.1970   40.4440   28.0560 C   0  0  0  0  0  0  0  0  0  0  0  0
   32.2010   39.7590   27.1000 C   0  0  0  0  0  0  0  0  0  0  0  0
   32.8710   38.7650   26.1280 C   0  0  0  0  0  0  0  0  0  0  0  0
   33.8650   37.8420   26.8650 C   0  0  0  0  0  0  0  0  0  0  0  0
   34.8170   38.6020   27.8020 C   0  0  0  0  0  0  0  0  0  0  0  0
   34.0770   39.4750   28.7610 N   0  0  0  0  0  0  0  0  0  0  0  0
   32.6280   41.0720   28.7850 H   0  0  0  0  0  0  0  0  0  0  0  0
   33.8660   41.1290   27.4660 H   0  0  0  0  0  0  0  0  0  0  0  0
   31.6730   40.5520   26.5150 H   0  0  0  0  0  0  0  0  0  0  0  0
   31.4360   39.2000   27.6920 H   0  0  0  0  0  0  0  0  0  0  0  0
   32.0640   38.1240   25.6660 H   0  0  0  0  0  0  0  0  0  0  0  0
   33.2620   37.1000   27.4440 H   0  0  0  0  0  0  0  0  0  0  0  0
   34.4730   37.2680   26.1210 H   0  0  0  0  0  0  0  0  0  0  0  0
   35.4430   37.8690   28.3730 H   0  0  0  0  0  0  0  0  0  0  0  0
   35.4860   39.2710   27.1960 H   0  0  0  0  0  0  0  0  0  0  0  0
   33.7760   38.9970   30.0570 C   0  0  0  0  0  0  0  0  0  0  0  0
   34.3830   38.0190   30.4860 O   0  0  0  0  0  0  0  0  0  0  0  0
   32.8210   39.7790   30.9100 C   0  0  0  0  0  0  0  0  0  0  0  0
   31.7770   39.7270   30.5070 H   0  0  0  0  0  0  0  0  0  0  0  0
   32.7970   39.3780   31.9550 H   0  0  0  0  0  0  0  0  0  0  0  0
   33.1090   40.8610   30.9760 H   0  0  0  0  0  0  0  0  0  0  0  0
  1  3  2  0  0  0  0
  1  7  1  0  0  0  0
  1 22  1  0  0  0  0
  2 12  1  0  0  0  0
  2 18  2  0  0  0  0
  2 19  1  0  0  0  0
  3 13  1  0  0  0  0
  3 15  1  0  0  0  0
  4 17  2  0  0  0  0
  4 20  1  0  0  0  0
  4 21  1  0  0  0  0
  5  6  1  0  0  0  0
  5 10  1  0  0  0  0
  5 11  2  0  0  0  0
  6 12  2  0  0  0  0
  6 23  1  0  0  0  0
  7  8  2  0  0  0  0
  7 31  1  0  0  0  0
  8  9  1  0  0  0  0
  8 24  1  0  0  0  0
  9 13  2  0  0  0  0
  9 25  1  0  0  0  0
 10 19  1  0  0  0  0
 10 20  2  0  0  0  0
 11 17  1  0  0  0  0
 11 26  1  0  0  0  0
 12 16  1  0  0  0  0
 13 16  1  0  0  0  0
 14 19  1  0  0  0  0
 14 27  1  0  0  0  0
 14 28  1  0  0  0  0
 14 29  1  0  0  0  0
 21 30  1  0  0  0  0
 21 34  1  0  0  0  0
 32 33  1  0  0  0  0
 32 37  1  0  0  0  0
 32 38  1  0  0  0  0
 32 39  1  0  0  0  0
 33 34  1  0  0  0  0
 33 40  1  0  0  0  0
 33 41  1  0  0  0  0
 34 35  1  0  0  0  0
 34 42  1  0  0  0  0
 35 36  1  0  0  0  0
 35 43  1  0  0  0  0
 35 44  1  0  0  0  0
 36 37  1  0  0  0  0
 36 45  1  0  0  0  0
 36 46  1  0  0  0  0
 37 47  1  0  0  0  0
 47 48  2  0  0  0  0
 47 49  1  0  0  0  0
 49 50  1  0  0  0  0
 49 51  1  0  0  0  0
 49 52  1  0  0  0  0
M  END
$$$$
