p38a_2o
 OpenBabel02232411163D
Structure written by MMmdl.
 55 58  0  0  0  0  0  0  0  0999 V2000
   38.2830   36.5280   17.1610 C   0  0  0  0  0  0  0  0  0  0  0  0
   34.5690   35.1040   21.2450 C   0  0  0  0  0  0  0  0  0  0  0  0
   37.5000   36.0710   18.2170 C   0  0  0  0  0  0  0  0  0  0  0  0
   34.0170   39.2320   23.7140 C   0  0  0  0  0  0  0  0  0  0  0  0
   34.6360   37.9880   21.3320 C   0  0  0  0  0  0  0  0  0  0  0  0
   35.0240   37.3080   20.1260 C   0  0  0  0  0  0  0  0  0  0  0  0
   37.6370   36.6820   15.9270 C   0  0  0  0  0  0  0  0  0  0  0  0
   36.2900   36.3760   15.7190 C   0  0  0  0  0  0  0  0  0  0  0  0
   35.5270   35.9050   16.7930 C   0  0  0  0  0  0  0  0  0  0  0  0
   34.2940   37.2350   22.4920 C   0  0  0  0  0  0  0  0  0  0  0  0
   34.5950   39.4030   21.4480 C   0  0  0  0  0  0  0  0  0  0  0  0
   35.0290   35.9550   20.1150 C   0  0  0  0  0  0  0  0  0  0  0  0
   36.1390   35.7440   18.0390 C   0  0  0  0  0  0  0  0  0  0  0  0
   38.0300   35.9420   19.4260 F   0  0  0  0  0  0  0  0  0  0  0  0
   35.4190   35.1210   19.0690 O   0  0  0  0  0  0  0  0  0  0  0  0
   34.3040   40.0380   22.5950 N   0  0  0  0  0  0  0  0  0  0  0  0
   34.4600   33.8990   21.2180 O   0  0  0  0  0  0  0  0  0  0  0  0
   34.2640   35.8280   22.4540 N   0  0  0  0  0  0  0  0  0  0  0  0
   34.0010   37.8510   23.6820 N   0  0  0  0  0  0  0  0  0  0  0  0
   33.6860   39.8640   24.8890 N   0  0  0  0  0  0  0  0  0  0  0  0
   39.3360   36.7930   17.2970 H   0  0  0  0  0  0  0  0  0  0  0  0
   35.3150   37.9130   19.2650 H   0  0  0  0  0  0  0  0  0  0  0  0
   35.8200   36.5160   14.7430 H   0  0  0  0  0  0  0  0  0  0  0  0
   34.4640   35.6850   16.6530 H   0  0  0  0  0  0  0  0  0  0  0  0
   34.8050   40.0330   20.5670 H   0  0  0  0  0  0  0  0  0  0  0  0
   33.7680   40.8940   24.9690 H   0  0  0  0  0  0  0  0  0  0  0  0
   38.3340   37.1850   14.9110 F   0  0  0  0  0  0  0  0  0  0  0  0
   32.2370   39.0320   28.3250 C   0  0  0  0  0  0  0  0  0  0  0  0
   32.3180   39.6800   26.9360 C   0  0  0  0  0  0  0  0  0  0  0  0
   33.5480   39.1290   26.1820 C   0  0  0  0  0  0  0  0  0  0  0  0
   34.8260   39.3220   27.0290 C   0  0  0  0  0  0  0  0  0  0  0  0
   34.6280   38.7040   28.4180 C   0  0  0  0  0  0  0  0  0  0  0  0
   33.4530   39.2310   29.0790 O   0  0  0  0  0  0  0  0  0  0  0  0
   32.0330   37.9390   28.2390 H   0  0  0  0  0  0  0  0  0  0  0  0
   31.4760   39.5380   28.9610 H   0  0  0  0  0  0  0  0  0  0  0  0
   32.4050   40.7870   27.0390 H   0  0  0  0  0  0  0  0  0  0  0  0
   31.3910   39.4490   26.3580 H   0  0  0  0  0  0  0  0  0  0  0  0
   33.3900   38.0350   25.9750 H   0  0  0  0  0  0  0  0  0  0  0  0
   35.6890   38.8270   26.5240 H   0  0  0  0  0  0  0  0  0  0  0  0
   35.0490   40.4120   27.1240 H   0  0  0  0  0  0  0  0  0  0  0  0
   34.5330   37.5950   28.3490 H   0  0  0  0  0  0  0  0  0  0  0  0
   35.4440   39.0070   29.1140 H   0  0  0  0  0  0  0  0  0  0  0  0
   33.7930   35.0680   23.6680 C   0  0  0  0  0  0  0  0  0  0  0  0
   34.2980   34.0630   23.6530 H   0  0  0  0  0  0  0  0  0  0  0  0
   34.1200   35.6400   24.5840 H   0  0  0  0  0  0  0  0  0  0  0  0
   32.2700   34.9180   23.6470 C   0  0  0  0  0  0  0  0  0  0  0  0
   31.8150   35.9380   23.4820 H   0  0  0  0  0  0  0  0  0  0  0  0
   31.9590   34.3050   22.7590 H   0  0  0  0  0  0  0  0  0  0  0  0
   31.5810   34.2190   25.1230 S   0  0  0  0  0  0  0  0  0  0  0  0
   32.6420   33.7790   26.0530 O   0  0  0  0  0  0  0  0  0  0  0  0
   30.7250   33.0630   24.7600 O   0  0  0  0  0  0  0  0  0  0  0  0
   30.6350   35.5070   25.7900 C   0  0  0  0  0  0  0  0  0  0  0  0
   29.8050   35.8320   25.1080 H   0  0  0  0  0  0  0  0  0  0  0  0
   30.1410   35.2370   26.7630 H   0  0  0  0  0  0  0  0  0  0  0  0
   31.2450   36.4240   26.0080 H   0  0  0  0  0  0  0  0  0  0  0  0
  1  3  2  0  0  0  0
  1  7  1  0  0  0  0
  1 21  1  0  0  0  0
  2 12  1  0  0  0  0
  2 17  2  0  0  0  0
  2 18  1  0  0  0  0
  3 13  1  0  0  0  0
  3 14  1  0  0  0  0
  4 16  2  0  0  0  0
  4 19  1  0  0  0  0
  4 20  1  0  0  0  0
  5  6  1  0  0  0  0
  5 10  1  0  0  0  0
  5 11  2  0  0  0  0
  6 12  2  0  0  0  0
  6 22  1  0  0  0  0
  7  8  2  0  0  0  0
  7 27  1  0  0  0  0
  8  9  1  0  0  0  0
  8 23  1  0  0  0  0
  9 13  2  0  0  0  0
  9 24  1  0  0  0  0
 10 18  1  0  0  0  0
 10 19  2  0  0  0  0
 11 16  1  0  0  0  0
 11 25  1  0  0  0  0
 12 15  1  0  0  0  0
 13 15  1  0  0  0  0
 18 43  1  0  0  0  0
 20 26  1  0  0  0  0
 20 30  1  0  0  0  0
 28 29  1  0  0  0  0
 28 33  1  0  0  0  0
 28 34  1  0  0  0  0
 28 35  1  0  0  0  0
 29 30  1  0  0  0  0
 29 36  1  0  0  0  0
 29 37  1  0  0  0  0
 30 31  1  0  0  0  0
 30 38  1  0  0  0  0
 31 32  1  0  0  0  0
 31 39  1  0  0  0  0
 31 40  1  0  0  0  0
 32 33  1  0  0  0  0
 32 41  1  0  0  0  0
 32 42  1  0  0  0  0
 43 44  1  0  0  0  0
 43 45  1  0  0  0  0
 43 46  1  0  0  0  0
 46 47  1  0  0  0  0
 46 48  1  0  0  0  0
 46 49  1  0  0  0  0
 49 50  2  0  0  0  0
 49 51  2  0  0  0  0
 49 52  1  0  0  0  0
 52 53  1  0  0  0  0
 52 54  1  0  0  0  0
 52 55  1  0  0  0  0
M  END
$$$$
