CAT-4c
                    3D
 Schrodinger Suite 2022-3.
 50 53  0  0  1  0  0  0  0  0999 V2000
   10.8760    4.9810   -3.9390 C   0  0  0  0  0  0  0  0  0  0  0  0
   11.7880    4.5810   -2.8790 O   0  0  0  0  0  0  0  0  0  0  0  0
   12.3900    3.3540   -2.9690 C   0  0  0  0  0  0  0  0  0  0  0  0
   13.2440    3.0720   -1.8780 C   0  0  0  0  0  0  0  0  0  0  0  0
   13.9070    1.8520   -1.8400 C   0  0  0  0  0  0  0  0  0  0  0  0
   13.7440    0.9180   -2.8810 C   0  0  0  0  0  0  0  0  0  0  0  0
   14.4530   -0.3760   -2.8730 C   0  0  0  0  0  0  0  0  0  0  0  0
   15.2340   -0.7430   -3.9880 C   0  0  0  0  0  0  0  0  0  0  0  0
   15.8510   -1.9890   -4.0300 C   0  0  0  0  0  0  0  0  0  0  0  0
   15.6840   -2.9070   -2.9850 C   0  0  0  0  0  0  0  0  0  0  0  0
   14.9140   -2.5500   -1.8750 C   0  0  0  0  0  0  0  0  0  0  0  0
   14.6310   -3.5510   -0.7680 C   0  0  1  0  0  0  0  0  0  0  0  0
   15.1400   -4.9650   -0.9850 C   0  0  0  0  0  0  0  0  0  0  0  0
   14.2730   -6.0150   -1.3210 C   0  0  0  0  0  0  0  0  0  0  0  0
   14.7650   -7.3180   -1.4500 C   0  0  0  0  0  0  0  0  0  0  0  0
   16.1220   -7.5830   -1.2510 C   0  0  0  0  0  0  0  0  0  0  0  0
   16.9970   -6.5300   -0.9630 C   0  0  0  0  0  0  0  0  0  0  0  0
   16.5110   -5.2280   -0.8280 C   0  0  0  0  0  0  0  0  0  0  0  0
   15.1640   -3.0110    0.5440 N   0  3  0  0  0  0  0  0  0  0  0  0
   14.1560   -2.9190    1.4950 C   0  0  0  0  0  0  0  0  0  0  0  0
   14.3710   -2.6610    2.8110 N   0  0  0  0  0  0  0  0  0  0  0  0
   12.9160   -3.1720    0.9030 N   0  0  0  0  0  0  0  0  0  0  0  0
   11.6440   -3.0200    1.6380 C   0  0  0  0  0  0  0  0  0  0  0  0
   13.0820   -3.5370   -0.5100 C   0  0  0  0  0  0  0  0  0  0  0  0
   12.1520   -3.7330   -1.2260 O   0  0  0  0  0  0  0  0  0  0  0  0
   14.3300   -1.2700   -1.8020 C   0  0  0  0  0  0  0  0  0  0  0  0
   12.8970    1.2200   -3.9600 C   0  0  0  0  0  0  0  0  0  0  0  0
   12.2090    2.4320   -4.0090 C   0  0  0  0  0  0  0  0  0  0  0  0
   10.5720    5.9990   -3.5960 H   0  0  0  0  0  0  0  0  0  0  0  0
   11.4130    5.0280   -4.9110 H   0  0  0  0  0  0  0  0  0  0  0  0
   10.0060    4.2900   -3.9760 H   0  0  0  0  0  0  0  0  0  0  0  0
   13.3810    3.8040   -1.0770 H   0  0  0  0  0  0  0  0  0  0  0  0
   14.5670    1.6140   -1.0000 H   0  0  0  0  0  0  0  0  0  0  0  0
   15.3630   -0.0450   -4.8240 H   0  0  0  0  0  0  0  0  0  0  0  0
   16.4690   -2.2520   -4.8880 H   0  0  0  0  0  0  0  0  0  0  0  0
   16.1550   -3.8890   -3.0520 H   0  0  0  0  0  0  0  0  0  0  0  0
   13.2080   -5.8400   -1.4900 H   0  0  0  0  0  0  0  0  0  0  0  0
   14.0760   -8.1340   -1.6990 H   0  0  0  0  0  0  0  0  0  0  0  0
   16.4980   -8.6090   -1.3050 H   0  0  0  0  0  0  0  0  0  0  0  0
   18.0610   -6.7250   -0.8090 H   0  0  0  0  0  0  0  0  0  0  0  0
   17.2060   -4.4190   -0.5910 H   0  0  0  0  0  0  0  0  0  0  0  0
   16.1600   -3.1530    0.8590 H   0  0  0  0  0  0  0  0  0  0  0  0
   13.6460   -2.2200    3.4240 H   0  0  0  0  0  0  0  0  0  0  0  0
   10.8160   -3.5110    1.0590 H   0  0  0  0  0  0  0  0  0  0  0  0
   11.7210   -3.5090    2.6480 H   0  0  0  0  0  0  0  0  0  0  0  0
   11.4160   -1.9310    1.7750 H   0  0  0  0  0  0  0  0  0  0  0  0
   13.7830   -0.9670   -0.9050 H   0  0  0  0  0  0  0  0  0  0  0  0
   12.7680    0.4970   -4.7740 H   0  0  0  0  0  0  0  0  0  0  0  0
   11.5510    2.6340   -4.8580 H   0  0  0  0  0  0  0  0  0  0  0  0
   15.3540   -2.5080    3.1600 H   0  0  0  0  0  0  0  0  0  0  0  0
  1  2  1  0  0  0  0
  1 29  1  0  0  0  0
  1 30  1  0  0  0  0
  1 31  1  0  0  0  0
  2  3  1  0  0  0  0
  3  4  2  0  0  0  0
  3 28  1  0  0  0  0
  4  5  1  0  0  0  0
  4 32  1  0  0  0  0
  5  6  2  0  0  0  0
  5 33  1  0  0  0  0
  6  7  1  0  0  0  0
  6 27  1  0  0  0  0
  7  8  2  0  0  0  0
  7 26  1  0  0  0  0
  8  9  1  0  0  0  0
  8 34  1  0  0  0  0
  9 10  2  0  0  0  0
  9 35  1  0  0  0  0
 10 11  1  0  0  0  0
 10 36  1  0  0  0  0
 11 12  1  0  0  0  0
 11 26  2  0  0  0  0
 12 13  1  0  0  0  0
 12 19  1  0  0  0  0
 12 24  1  0  0  0  0
 13 14  2  0  0  0  0
 13 18  1  0  0  0  0
 14 15  1  0  0  0  0
 14 37  1  0  0  0  0
 15 16  2  0  0  0  0
 15 38  1  0  0  0  0
 16 17  1  0  0  0  0
 16 39  1  0  0  0  0
 17 18  2  0  0  0  0
 17 40  1  0  0  0  0
 18 41  1  0  0  0  0
 19 20  2  0  0  0  0
 19 42  1  0  0  0  0
 20 21  1  0  0  0  0
 20 22  1  0  0  0  0
 21 43  1  0  0  0  0
 21 50  1  0  0  0  0
 22 23  1  0  0  0  0
 22 24  1  0  0  0  0
 23 44  1  0  0  0  0
 23 45  1  0  0  0  0
 23 46  1  0  0  0  0
 24 25  2  0  0  0  0
 26 47  1  0  0  0  0
 27 28  2  0  0  0  0
 27 48  1  0  0  0  0
 28 49  1  0  0  0  0
M  CHG  1  19   1
M  END
$$$$
