p38a_2i
 OpenBabel02232411163D
Structure written by MMmdl.
 48 51  0  0  0  0  0  0  0  0999 V2000
   32.6240   39.8420   27.2720 C   0  0  0  0  0  0  0  0  0  0  0  0
   32.5840   39.2070   28.6680 C   0  0  0  0  0  0  0  0  0  0  0  0
   34.9130   38.5790   28.5520 C   0  0  0  0  0  0  0  0  0  0  0  0
   35.0720   39.1840   27.1520 C   0  0  0  0  0  0  0  0  0  0  0  0
   38.2730   36.2390   17.7630 C   0  0  0  0  0  0  0  0  0  0  0  0
   33.8790   39.2500   29.3090 O   0  0  0  0  0  0  0  0  0  0  0  0
   34.3900   35.2710   21.2460 C   0  0  0  0  0  0  0  0  0  0  0  0
   37.1350   35.9140   18.5060 C   0  0  0  0  0  0  0  0  0  0  0  0
   34.0930   39.2900   23.9230 C   0  0  0  0  0  0  0  0  0  0  0  0
   33.7140   39.1630   26.4150 C   0  0  0  0  0  0  0  0  0  0  0  0
   34.4430   38.1290   21.4510 C   0  0  0  0  0  0  0  0  0  0  0  0
   34.5820   37.4900   20.1770 C   0  0  0  0  0  0  0  0  0  0  0  0
   38.1340   36.4090   16.3840 C   0  0  0  0  0  0  0  0  0  0  0  0
   36.8850   36.2460   15.7800 C   0  0  0  0  0  0  0  0  0  0  0  0
   35.7600   35.9340   16.5480 C   0  0  0  0  0  0  0  0  0  0  0  0
   34.2990   37.3350   22.6290 C   0  0  0  0  0  0  0  0  0  0  0  0
   34.4220   39.5410   21.6120 C   0  0  0  0  0  0  0  0  0  0  0  0
   34.5390   36.1370   20.0670 C   0  0  0  0  0  0  0  0  0  0  0  0
   35.8560   35.7700   17.9390 C   0  0  0  0  0  0  0  0  0  0  0  0
   34.2040   35.1280   23.7740 C   0  0  0  0  0  0  0  0  0  0  0  0
   37.2910   35.7310   19.8170 F   0  0  0  0  0  0  0  0  0  0  0  0
   34.6180   35.4500   18.7320 C   0  0  0  0  0  0  0  0  0  0  0  0
   34.2590   40.1340   22.8010 N   0  0  0  0  0  0  0  0  0  0  0  0
   34.3320   34.0550   21.2490 O   0  0  0  0  0  0  0  0  0  0  0  0
   34.3090   35.9420   22.5310 N   0  0  0  0  0  0  0  0  0  0  0  0
   34.1390   37.9120   23.8680 N   0  0  0  0  0  0  0  0  0  0  0  0
   33.8170   39.9010   25.1210 N   0  0  0  0  0  0  0  0  0  0  0  0
   31.6290   39.7230   26.7800 H   0  0  0  0  0  0  0  0  0  0  0  0
   32.8380   40.9340   27.3670 H   0  0  0  0  0  0  0  0  0  0  0  0
   31.9540   39.8060   29.3650 H   0  0  0  0  0  0  0  0  0  0  0  0
   32.2390   38.1480   28.6150 H   0  0  0  0  0  0  0  0  0  0  0  0
   34.6690   37.4930   28.4920 H   0  0  0  0  0  0  0  0  0  0  0  0
   35.8180   38.7600   29.1760 H   0  0  0  0  0  0  0  0  0  0  0  0
   35.4420   40.2340   27.2330 H   0  0  0  0  0  0  0  0  0  0  0  0
   35.8210   38.5890   26.5780 H   0  0  0  0  0  0  0  0  0  0  0  0
   39.2460   36.3930   18.2320 H   0  0  0  0  0  0  0  0  0  0  0  0
   33.4130   38.0960   26.2120 H   0  0  0  0  0  0  0  0  0  0  0  0
   34.7240   38.1250   19.2980 H   0  0  0  0  0  0  0  0  0  0  0  0
   36.7760   36.3840   14.7050 H   0  0  0  0  0  0  0  0  0  0  0  0
   34.7920   35.8350   16.0490 H   0  0  0  0  0  0  0  0  0  0  0  0
   34.5330   40.1950   20.7300 H   0  0  0  0  0  0  0  0  0  0  0  0
   35.0180   35.4140   24.4920 H   0  0  0  0  0  0  0  0  0  0  0  0
   33.2120   35.3070   24.2710 H   0  0  0  0  0  0  0  0  0  0  0  0
   34.2980   34.0380   23.5270 H   0  0  0  0  0  0  0  0  0  0  0  0
   33.8680   40.9370   25.1960 H   0  0  0  0  0  0  0  0  0  0  0  0
   38.9970   36.6920   15.7860 H   0  0  0  0  0  0  0  0  0  0  0  0
   34.5550   34.3360   18.8650 H   0  0  0  0  0  0  0  0  0  0  0  0
   33.7110   35.7620   18.1390 H   0  0  0  0  0  0  0  0  0  0  0  0
  1  2  1  0  0  0  0
  1 10  1  0  0  0  0
  1 28  1  0  0  0  0
  1 29  1  0  0  0  0
  2  6  1  0  0  0  0
  2 30  1  0  0  0  0
  2 31  1  0  0  0  0
  3  4  1  0  0  0  0
  3  6  1  0  0  0  0
  3 32  1  0  0  0  0
  3 33  1  0  0  0  0
  4 10  1  0  0  0  0
  4 34  1  0  0  0  0
  4 35  1  0  0  0  0
  5  8  2  0  0  0  0
  5 13  1  0  0  0  0
  5 36  1  0  0  0  0
  7 18  1  0  0  0  0
  7 24  2  0  0  0  0
  7 25  1  0  0  0  0
  8 19  1  0  0  0  0
  8 21  1  0  0  0  0
  9 23  2  0  0  0  0
  9 26  1  0  0  0  0
  9 27  1  0  0  0  0
 10 27  1  0  0  0  0
 10 37  1  0  0  0  0
 11 12  1  0  0  0  0
 11 16  1  0  0  0  0
 11 17  2  0  0  0  0
 12 18  2  0  0  0  0
 12 38  1  0  0  0  0
 13 14  2  0  0  0  0
 13 46  1  0  0  0  0
 14 15  1  0  0  0  0
 14 39  1  0  0  0  0
 15 19  2  0  0  0  0
 15 40  1  0  0  0  0
 16 25  1  0  0  0  0
 16 26  2  0  0  0  0
 17 23  1  0  0  0  0
 17 41  1  0  0  0  0
 18 22  1  0  0  0  0
 19 22  1  0  0  0  0
 20 25  1  0  0  0  0
 20 42  1  0  0  0  0
 20 43  1  0  0  0  0
 20 44  1  0  0  0  0
 22 47  1  0  0  0  0
 22 48  1  0  0  0  0
 27 45  1  0  0  0  0
M  END
$$$$
