p38a_2z
 OpenBabel02232411163D
Structure written by MMmdl.
 45 47  0  0  0  0  0  0  0  0999 V2000
   38.2850   36.5560   17.1720 C   0  0  0  0  0  0  0  0  0  0  0  0
   34.4760   35.0710   21.1920 C   0  0  0  0  0  0  0  0  0  0  0  0
   37.4940   36.1060   18.2250 C   0  0  0  0  0  0  0  0  0  0  0  0
   33.7980   39.0780   23.8260 C   0  0  0  0  0  0  0  0  0  0  0  0
   32.7100   39.0030   26.1300 C   0  0  0  0  0  0  0  0  0  0  0  0
   34.6040   37.9410   21.4350 C   0  0  0  0  0  0  0  0  0  0  0  0
   35.0490   37.3160   20.2200 C   0  0  0  0  0  0  0  0  0  0  0  0
   37.6440   36.7180   15.9360 C   0  0  0  0  0  0  0  0  0  0  0  0
   36.2950   36.4280   15.7240 C   0  0  0  0  0  0  0  0  0  0  0  0
   35.5240   35.9650   16.7950 C   0  0  0  0  0  0  0  0  0  0  0  0
   34.1350   37.1440   22.5210 C   0  0  0  0  0  0  0  0  0  0  0  0
   34.6100   39.3490   21.6360 C   0  0  0  0  0  0  0  0  0  0  0  0
   35.0050   35.9670   20.1300 C   0  0  0  0  0  0  0  0  0  0  0  0
   36.1290   35.7960   18.0440 C   0  0  0  0  0  0  0  0  0  0  0  0
   33.5820   34.9350   23.5440 C   0  0  0  0  0  0  0  0  0  0  0  0
   38.0210   35.9650   19.4350 F   0  0  0  0  0  0  0  0  0  0  0  0
   35.4020   35.1650   19.0600 O   0  0  0  0  0  0  0  0  0  0  0  0
   34.2280   39.9280   22.7830 N   0  0  0  0  0  0  0  0  0  0  0  0
   34.3680   33.8660   21.1050 O   0  0  0  0  0  0  0  0  0  0  0  0
   34.0740   35.7440   22.3950 N   0  0  0  0  0  0  0  0  0  0  0  0
   33.7340   37.7040   23.7060 N   0  0  0  0  0  0  0  0  0  0  0  0
   33.5070   39.6690   25.0390 N   0  0  0  0  0  0  0  0  0  0  0  0
   39.3410   36.8040   17.3100 H   0  0  0  0  0  0  0  0  0  0  0  0
   32.3510   40.1050   27.1460 C   0  0  0  0  0  0  0  0  0  0  0  0
   35.4140   37.9540   19.4110 H   0  0  0  0  0  0  0  0  0  0  0  0
   35.8310   36.5710   14.7450 H   0  0  0  0  0  0  0  0  0  0  0  0
   34.4600   35.7510   16.6490 H   0  0  0  0  0  0  0  0  0  0  0  0
   34.9320   40.0150   20.8170 H   0  0  0  0  0  0  0  0  0  0  0  0
   34.2190   35.1220   24.4500 H   0  0  0  0  0  0  0  0  0  0  0  0
   32.5230   35.2180   23.7900 H   0  0  0  0  0  0  0  0  0  0  0  0
   33.6170   33.8420   23.2950 H   0  0  0  0  0  0  0  0  0  0  0  0
   33.5090   40.7110   25.0870 H   0  0  0  0  0  0  0  0  0  0  0  0
   38.3500   37.2100   14.9210 F   0  0  0  0  0  0  0  0  0  0  0  0
   31.3880   38.3860   25.5650 C   0  0  0  0  0  0  0  0  0  0  0  0
   33.5450   37.9120   26.8120 C   0  0  0  0  0  0  0  0  0  0  0  0
   30.8090   39.2310   24.5650 O   0  0  0  0  0  0  0  0  0  0  0  0
   30.3290   39.9840   25.0040 H   0  0  0  0  0  0  0  0  0  0  0  0
   31.5850   37.4360   25.0160 H   0  0  0  0  0  0  0  0  0  0  0  0
   30.6580   38.2220   26.3890 H   0  0  0  0  0  0  0  0  0  0  0  0
   32.9940   37.5100   27.6950 H   0  0  0  0  0  0  0  0  0  0  0  0
   33.7610   37.0620   26.1240 H   0  0  0  0  0  0  0  0  0  0  0  0
   34.5150   38.3300   27.1690 H   0  0  0  0  0  0  0  0  0  0  0  0
   31.7860   39.6710   28.0010 H   0  0  0  0  0  0  0  0  0  0  0  0
   33.2690   40.5860   27.5600 H   0  0  0  0  0  0  0  0  0  0  0  0
   31.7400   40.8840   26.6490 H   0  0  0  0  0  0  0  0  0  0  0  0
  1  3  2  0  0  0  0
  1  8  1  0  0  0  0
  1 23  1  0  0  0  0
  2 13  1  0  0  0  0
  2 19  2  0  0  0  0
  2 20  1  0  0  0  0
  3 14  1  0  0  0  0
  3 16  1  0  0  0  0
  4 18  2  0  0  0  0
  4 21  1  0  0  0  0
  4 22  1  0  0  0  0
  5 22  1  0  0  0  0
  5 24  1  0  0  0  0
  5 34  1  0  0  0  0
  5 35  1  0  0  0  0
  6  7  1  0  0  0  0
  6 11  1  0  0  0  0
  6 12  2  0  0  0  0
  7 13  2  0  0  0  0
  7 25  1  0  0  0  0
  8  9  2  0  0  0  0
  8 33  1  0  0  0  0
  9 10  1  0  0  0  0
  9 26  1  0  0  0  0
 10 14  2  0  0  0  0
 10 27  1  0  0  0  0
 11 20  1  0  0  0  0
 11 21  2  0  0  0  0
 12 18  1  0  0  0  0
 12 28  1  0  0  0  0
 13 17  1  0  0  0  0
 14 17  1  0  0  0  0
 15 20  1  0  0  0  0
 15 29  1  0  0  0  0
 15 30  1  0  0  0  0
 15 31  1  0  0  0  0
 22 32  1  0  0  0  0
 24 43  1  0  0  0  0
 24 44  1  0  0  0  0
 24 45  1  0  0  0  0
 34 36  1  0  0  0  0
 34 38  1  0  0  0  0
 34 39  1  0  0  0  0
 35 40  1  0  0  0  0
 35 41  1  0  0  0  0
 35 42  1  0  0  0  0
 36 37  1  0  0  0  0
M  END
$$$$
