28
 OpenBabel02232411153D
Structure written by MMmdl.
 53 56  0  0  0  0  0  0  0  0999 V2000
    2.0910   28.7750    6.7180 C   0  0  0  0  0  0  0  0  0  0  0  0
   -1.4080   31.3470    7.8760 C   0  0  0  0  0  0  0  0  0  0  0  0
    0.2710   25.9780    9.0500 C   0  0  0  0  0  0  0  0  0  0  0  0
   -0.6460   25.2510   10.0410 C   0  0  0  0  0  0  0  0  0  0  0  0
   -0.5750   23.7350    9.7520 C   0  0  0  0  0  0  0  0  0  0  0  0
   -1.4060   22.9410   10.7680 C   0  0  0  0  0  0  0  0  0  0  0  0
   -0.9920   23.2530   12.2150 C   0  0  0  0  0  0  0  0  0  0  0  0
   -1.0670   24.7610   12.5030 C   0  0  0  0  0  0  0  0  0  0  0  0
   -0.2350   25.5640   11.4920 C   0  0  0  0  0  0  0  0  0  0  0  0
    5.7340   25.8110    5.1610 C   0  0  0  0  0  0  0  0  0  0  0  0
    5.5890   24.8380    6.1620 C   0  0  0  0  0  0  0  0  0  0  0  0
    4.6870   25.0810    7.2080 C   0  0  0  0  0  0  0  0  0  0  0  0
    3.9200   26.2490    7.2510 C   0  0  0  0  0  0  0  0  0  0  0  0
    1.4260   27.8360    7.4930 N   0  0  0  0  0  0  0  0  0  0  0  0
    0.2210   28.1580    8.0410 C   0  0  0  0  0  0  0  0  0  0  0  0
   -0.4250   27.2710    8.8070 O   0  0  0  0  0  0  0  0  0  0  0  0
   -0.3400   29.4450    7.8260 C   0  0  0  0  0  0  0  0  0  0  0  0
   -1.4960   30.0810    8.2940 N   0  0  0  0  0  0  0  0  0  0  0  0
   -0.2000   31.5930    7.1320 N   0  0  0  0  0  0  0  0  0  0  0  0
    0.4750   30.3790    7.0650 C   0  0  0  0  0  0  0  0  0  0  0  0
    1.6710   30.0700    6.4660 N   0  0  0  0  0  0  0  0  0  0  0  0
    3.2920   28.4010    6.1100 N   0  0  0  0  0  0  0  0  0  0  0  0
    4.0250   27.1900    6.2130 C   0  0  0  0  0  0  0  0  0  0  0  0
    4.9660   26.9640    5.1760 C   0  0  0  0  0  0  0  0  0  0  0  0
   -2.1210   32.1450    8.0600 H   0  0  0  0  0  0  0  0  0  0  0  0
    1.2720   26.2000    9.4780 H   0  0  0  0  0  0  0  0  0  0  0  0
    0.3400   25.4650    8.0700 H   0  0  0  0  0  0  0  0  0  0  0  0
   -1.6980   25.6020    9.8900 H   0  0  0  0  0  0  0  0  0  0  0  0
   -0.9610   23.5360    8.7280 H   0  0  0  0  0  0  0  0  0  0  0  0
    0.4890   23.3980    9.8090 H   0  0  0  0  0  0  0  0  0  0  0  0
   -2.4790   23.2040   10.6380 H   0  0  0  0  0  0  0  0  0  0  0  0
   -1.2730   21.8500   10.5850 H   0  0  0  0  0  0  0  0  0  0  0  0
   -1.6680   22.7090   12.9150 H   0  0  0  0  0  0  0  0  0  0  0  0
    0.0520   22.8990   12.3820 H   0  0  0  0  0  0  0  0  0  0  0  0
   -2.1290   25.0930   12.4670 H   0  0  0  0  0  0  0  0  0  0  0  0
   -0.6740   24.9600   13.5280 H   0  0  0  0  0  0  0  0  0  0  0  0
    0.8420   25.3090   11.6380 H   0  0  0  0  0  0  0  0  0  0  0  0
   -0.3670   26.6520   11.6910 H   0  0  0  0  0  0  0  0  0  0  0  0
    6.4520   25.6960    4.3420 H   0  0  0  0  0  0  0  0  0  0  0  0
    4.5590   24.3570    8.0240 H   0  0  0  0  0  0  0  0  0  0  0  0
    3.2340   26.4090    8.0870 H   0  0  0  0  0  0  0  0  0  0  0  0
    0.0440   32.4800    6.6690 H   0  0  0  0  0  0  0  0  0  0  0  0
    3.7310   29.1100    5.4660 H   0  0  0  0  0  0  0  0  0  0  0  0
    5.0970   27.6950    4.3790 H   0  0  0  0  0  0  0  0  0  0  0  0
    6.5410   23.4020    6.1220 S   0  0  0  0  0  0  0  0  0  0  0  0
    7.6990   23.5940    7.0040 O   0  0  0  0  0  0  0  0  0  0  0  0
    5.7160   22.2290    6.4430 O   0  0  0  0  0  0  0  0  0  0  0  0
    7.1720   23.1380    4.5600 N   0  0  0  0  0  0  0  0  0  0  0  0
    7.9470   23.7430    4.2320 H   0  0  0  0  0  0  0  0  0  0  0  0
    6.2440   22.8070    3.4520 C   0  0  0  0  0  0  0  0  0  0  0  0
    6.8460   22.5190    2.5460 H   0  0  0  0  0  0  0  0  0  0  0  0
    5.6050   21.9260    3.7240 H   0  0  0  0  0  0  0  0  0  0  0  0
    5.5850   23.6690    3.1630 H   0  0  0  0  0  0  0  0  0  0  0  0
  1 14  2  0  0  0  0
  1 21  1  0  0  0  0
  1 22  1  0  0  0  0
  2 18  2  0  0  0  0
  2 19  1  0  0  0  0
  2 25  1  0  0  0  0
  3  4  1  0  0  0  0
  3 16  1  0  0  0  0
  3 26  1  0  0  0  0
  3 27  1  0  0  0  0
  4  5  1  0  0  0  0
  4  9  1  0  0  0  0
  4 28  1  0  0  0  0
  5  6  1  0  0  0  0
  5 29  1  0  0  0  0
  5 30  1  0  0  0  0
  6  7  1  0  0  0  0
  6 31  1  0  0  0  0
  6 32  1  0  0  0  0
  7  8  1  0  0  0  0
  7 33  1  0  0  0  0
  7 34  1  0  0  0  0
  8  9  1  0  0  0  0
  8 35  1  0  0  0  0
  8 36  1  0  0  0  0
  9 37  1  0  0  0  0
  9 38  1  0  0  0  0
 10 11  2  0  0  0  0
 10 24  1  0  0  0  0
 10 39  1  0  0  0  0
 11 12  1  0  0  0  0
 11 45  1  0  0  0  0
 12 13  2  0  0  0  0
 12 40  1  0  0  0  0
 13 23  1  0  0  0  0
 13 41  1  0  0  0  0
 14 15  1  0  0  0  0
 15 16  1  0  0  0  0
 15 17  2  0  0  0  0
 17 18  1  0  0  0  0
 17 20  1  0  0  0  0
 19 20  1  0  0  0  0
 19 42  1  0  0  0  0
 20 21  2  0  0  0  0
 22 23  1  0  0  0  0
 22 43  1  0  0  0  0
 23 24  2  0  0  0  0
 24 44  1  0  0  0  0
 45 46  2  0  0  0  0
 45 47  2  0  0  0  0
 45 48  1  0  0  0  0
 48 49  1  0  0  0  0
 48 50  1  0  0  0  0
 50 51  1  0  0  0  0
 50 52  1  0  0  0  0
 50 53  1  0  0  0  0
M  END
$$$$
