p38a_2u
 OpenBabel02232411163D
Structure written by MMmdl.
 64 68  0  0  0  0  0  0  0  0999 V2000
   38.2990   36.5430   17.1600 C   0  0  0  0  0  0  0  0  0  0  0  0
   34.5680   35.0840   21.2400 C   0  0  0  0  0  0  0  0  0  0  0  0
   37.5210   36.0860   18.2200 C   0  0  0  0  0  0  0  0  0  0  0  0
   34.0090   39.1680   23.7770 C   0  0  0  0  0  0  0  0  0  0  0  0
   34.6580   37.9470   21.3970 C   0  0  0  0  0  0  0  0  0  0  0  0
   35.0580   37.3000   20.1780 C   0  0  0  0  0  0  0  0  0  0  0  0
   37.6480   36.6940   15.9280 C   0  0  0  0  0  0  0  0  0  0  0  0
   36.3000   36.3870   15.7250 C   0  0  0  0  0  0  0  0  0  0  0  0
   35.5430   35.9180   16.8040 C   0  0  0  0  0  0  0  0  0  0  0  0
   34.2920   37.1750   22.5430 C   0  0  0  0  0  0  0  0  0  0  0  0
   34.6260   39.3620   21.5280 C   0  0  0  0  0  0  0  0  0  0  0  0
   35.0560   35.9490   20.1340 C   0  0  0  0  0  0  0  0  0  0  0  0
   36.1590   35.7610   18.0480 C   0  0  0  0  0  0  0  0  0  0  0  0
   38.0560   35.9580   19.4270 F   0  0  0  0  0  0  0  0  0  0  0  0
   35.4460   35.1290   19.0760 O   0  0  0  0  0  0  0  0  0  0  0  0
   34.3170   39.9880   22.6720 N   0  0  0  0  0  0  0  0  0  0  0  0
   34.4430   33.8800   21.1650 O   0  0  0  0  0  0  0  0  0  0  0  0
   34.2310   35.7680   22.4650 N   0  0  0  0  0  0  0  0  0  0  0  0
   34.0020   37.7860   23.7340 N   0  0  0  0  0  0  0  0  0  0  0  0
   33.6360   39.7910   24.9450 N   0  0  0  0  0  0  0  0  0  0  0  0
   39.3520   36.8080   17.2910 H   0  0  0  0  0  0  0  0  0  0  0  0
   35.3620   37.9250   19.3360 H   0  0  0  0  0  0  0  0  0  0  0  0
   35.8260   36.5240   14.7510 H   0  0  0  0  0  0  0  0  0  0  0  0
   34.4780   35.6960   16.6690 H   0  0  0  0  0  0  0  0  0  0  0  0
   34.8580   39.9960   20.6560 H   0  0  0  0  0  0  0  0  0  0  0  0
   33.7440   40.8200   25.0330 H   0  0  0  0  0  0  0  0  0  0  0  0
   38.3400   37.1950   14.9080 F   0  0  0  0  0  0  0  0  0  0  0  0
   32.3530   39.0900   28.4730 C   0  0  0  0  0  0  0  0  0  0  0  0
   32.4340   39.7630   27.0970 C   0  0  0  0  0  0  0  0  0  0  0  0
   33.4910   39.0440   26.2320 C   0  0  0  0  0  0  0  0  0  0  0  0
   34.8460   38.9850   26.9720 C   0  0  0  0  0  0  0  0  0  0  0  0
   34.6490   38.3500   28.3540 C   0  0  0  0  0  0  0  0  0  0  0  0
   33.6420   39.0480   29.1250 O   0  0  0  0  0  0  0  0  0  0  0  0
   31.9520   38.0530   28.3770 H   0  0  0  0  0  0  0  0  0  0  0  0
   31.7470   39.6980   29.1820 H   0  0  0  0  0  0  0  0  0  0  0  0
   32.7050   40.8370   27.2180 H   0  0  0  0  0  0  0  0  0  0  0  0
   31.4410   39.7040   26.5910 H   0  0  0  0  0  0  0  0  0  0  0  0
   33.1320   38.0000   26.0080 H   0  0  0  0  0  0  0  0  0  0  0  0
   35.5670   38.3700   26.3840 H   0  0  0  0  0  0  0  0  0  0  0  0
   35.2610   40.0160   27.0780 H   0  0  0  0  0  0  0  0  0  0  0  0
   34.3520   37.2800   28.2520 H   0  0  0  0  0  0  0  0  0  0  0  0
   35.5570   38.4720   28.9870 H   0  0  0  0  0  0  0  0  0  0  0  0
   31.7180   34.2490   24.9910 C   0  0  0  0  0  0  0  0  0  0  0  0
   32.2540   35.2570   23.9520 C   0  0  0  0  0  0  0  0  0  0  0  0
   33.7100   34.9150   23.6000 C   0  0  0  0  0  0  0  0  0  0  0  0
   34.5700   34.9980   24.8730 C   0  0  0  0  0  0  0  0  0  0  0  0
   34.0470   33.9660   25.8970 C   0  0  0  0  0  0  0  0  0  0  0  0
   31.5960   33.2450   24.5030 H   0  0  0  0  0  0  0  0  0  0  0  0
   30.7080   34.6310   25.3060 H   0  0  0  0  0  0  0  0  0  0  0  0
   32.1840   36.2830   24.3940 H   0  0  0  0  0  0  0  0  0  0  0  0
   31.5970   35.2160   23.0540 H   0  0  0  0  0  0  0  0  0  0  0  0
   33.7400   33.8490   23.2210 H   0  0  0  0  0  0  0  0  0  0  0  0
   35.6360   34.7790   24.6480 H   0  0  0  0  0  0  0  0  0  0  0  0
   34.4980   36.0200   25.3250 H   0  0  0  0  0  0  0  0  0  0  0  0
   34.2290   32.9320   25.4990 H   0  0  0  0  0  0  0  0  0  0  0  0
   34.6190   34.1190   26.8520 H   0  0  0  0  0  0  0  0  0  0  0  0
   32.5920   34.1700   26.2010 N   0  0  0  0  0  0  0  0  0  0  0  0
   31.9810   33.3070   27.5690 S   0  0  0  0  0  0  0  0  0  0  0  0
   32.3740   34.0460   28.7840 O   0  0  0  0  0  0  0  0  0  0  0  0
   32.5380   31.9390   27.5720 O   0  0  0  0  0  0  0  0  0  0  0  0
   30.2540   33.2360   27.4320 C   0  0  0  0  0  0  0  0  0  0  0  0
   29.7690   34.2510   27.4130 H   0  0  0  0  0  0  0  0  0  0  0  0
   29.9060   32.6890   26.5180 H   0  0  0  0  0  0  0  0  0  0  0  0
   29.7960   32.6970   28.3050 H   0  0  0  0  0  0  0  0  0  0  0  0
  1  3  2  0  0  0  0
  1  7  1  0  0  0  0
  1 21  1  0  0  0  0
  2 12  1  0  0  0  0
  2 17  2  0  0  0  0
  2 18  1  0  0  0  0
  3 13  1  0  0  0  0
  3 14  1  0  0  0  0
  4 16  2  0  0  0  0
  4 19  1  0  0  0  0
  4 20  1  0  0  0  0
  5  6  1  0  0  0  0
  5 10  1  0  0  0  0
  5 11  2  0  0  0  0
  6 12  2  0  0  0  0
  6 22  1  0  0  0  0
  7  8  2  0  0  0  0
  7 27  1  0  0  0  0
  8  9  1  0  0  0  0
  8 23  1  0  0  0  0
  9 13  2  0  0  0  0
  9 24  1  0  0  0  0
 10 18  1  0  0  0  0
 10 19  2  0  0  0  0
 11 16  1  0  0  0  0
 11 25  1  0  0  0  0
 12 15  1  0  0  0  0
 13 15  1  0  0  0  0
 18 45  1  0  0  0  0
 20 26  1  0  0  0  0
 20 30  1  0  0  0  0
 28 29  1  0  0  0  0
 28 33  1  0  0  0  0
 28 34  1  0  0  0  0
 28 35  1  0  0  0  0
 29 30  1  0  0  0  0
 29 36  1  0  0  0  0
 29 37  1  0  0  0  0
 30 31  1  0  0  0  0
 30 38  1  0  0  0  0
 31 32  1  0  0  0  0
 31 39  1  0  0  0  0
 31 40  1  0  0  0  0
 32 33  1  0  0  0  0
 32 41  1  0  0  0  0
 32 42  1  0  0  0  0
 43 44  1  0  0  0  0
 43 48  1  0  0  0  0
 43 49  1  0  0  0  0
 43 57  1  0  0  0  0
 44 45  1  0  0  0  0
 44 50  1  0  0  0  0
 44 51  1  0  0  0  0
 45 46  1  0  0  0  0
 45 52  1  0  0  0  0
 46 47  1  0  0  0  0
 46 53  1  0  0  0  0
 46 54  1  0  0  0  0
 47 55  1  0  0  0  0
 47 56  1  0  0  0  0
 47 57  1  0  0  0  0
 57 58  1  0  0  0  0
 58 59  2  0  0  0  0
 58 60  2  0  0  0  0
 58 61  1  0  0  0  0
 61 62  1  0  0  0  0
 61 63  1  0  0  0  0
 61 64  1  0  0  0  0
M  END
$$$$
