p38a_2l
 OpenBabel02232411163D
Structure written by MMmdl.
 49 52  0  0  0  0  0  0  0  0999 V2000
   38.2680   36.5260   17.1770 C   0  0  0  0  0  0  0  0  0  0  0  0
   34.5370   35.1280   21.2520 C   0  0  0  0  0  0  0  0  0  0  0  0
   37.4750   36.0730   18.2280 C   0  0  0  0  0  0  0  0  0  0  0  0
   34.0570   39.2450   23.7490 C   0  0  0  0  0  0  0  0  0  0  0  0
   34.6400   38.0010   21.3560 C   0  0  0  0  0  0  0  0  0  0  0  0
   35.0210   37.3270   20.1450 C   0  0  0  0  0  0  0  0  0  0  0  0
   37.6300   36.6840   15.9390 C   0  0  0  0  0  0  0  0  0  0  0  0
   36.2830   36.3870   15.7230 C   0  0  0  0  0  0  0  0  0  0  0  0
   35.5100   35.9220   16.7930 C   0  0  0  0  0  0  0  0  0  0  0  0
   34.2890   37.2510   22.5180 C   0  0  0  0  0  0  0  0  0  0  0  0
   34.6130   39.4170   21.4710 C   0  0  0  0  0  0  0  0  0  0  0  0
   35.0030   35.9760   20.1220 C   0  0  0  0  0  0  0  0  0  0  0  0
   36.1120   35.7570   18.0430 C   0  0  0  0  0  0  0  0  0  0  0  0
   37.9980   35.9370   19.4400 F   0  0  0  0  0  0  0  0  0  0  0  0
   35.3780   35.1440   19.0680 O   0  0  0  0  0  0  0  0  0  0  0  0
   34.3340   40.0480   22.6200 N   0  0  0  0  0  0  0  0  0  0  0  0
   34.4010   33.9240   21.2130 O   0  0  0  0  0  0  0  0  0  0  0  0
   34.2100   35.8490   22.4550 N   0  0  0  0  0  0  0  0  0  0  0  0
   33.9990   37.8690   23.7110 N   0  0  0  0  0  0  0  0  0  0  0  0
   33.8910   39.9260   24.9350 N   0  0  0  0  0  0  0  0  0  0  0  0
   39.3220   36.7820   17.3180 H   0  0  0  0  0  0  0  0  0  0  0  0
   35.3240   37.9350   19.2900 H   0  0  0  0  0  0  0  0  0  0  0  0
   35.8210   36.5290   14.7440 H   0  0  0  0  0  0  0  0  0  0  0  0
   34.4470   35.7060   16.6430 H   0  0  0  0  0  0  0  0  0  0  0  0
   34.8180   40.0450   20.5890 H   0  0  0  0  0  0  0  0  0  0  0  0
   33.8570   40.9660   24.9030 H   0  0  0  0  0  0  0  0  0  0  0  0
   38.3370   37.1830   14.9280 F   0  0  0  0  0  0  0  0  0  0  0  0
   33.6740   37.8050   28.1440 C   0  0  0  0  0  0  0  0  0  0  0  0
   34.2630   38.2820   26.8100 C   0  0  0  0  0  0  0  0  0  0  0  0
   33.3570   39.3760   26.2170 C   0  0  0  0  0  0  0  0  0  0  0  0
   31.9070   38.8650   26.0850 C   0  0  0  0  0  0  0  0  0  0  0  0
   31.4230   38.3580   27.4500 C   0  0  0  0  0  0  0  0  0  0  0  0
   32.3070   37.3530   27.9950 O   0  0  0  0  0  0  0  0  0  0  0  0
   33.7040   38.6140   28.9100 H   0  0  0  0  0  0  0  0  0  0  0  0
   34.1880   36.8840   28.5030 H   0  0  0  0  0  0  0  0  0  0  0  0
   34.3380   37.4160   26.1070 H   0  0  0  0  0  0  0  0  0  0  0  0
   35.2890   38.6880   26.9780 H   0  0  0  0  0  0  0  0  0  0  0  0
   33.3630   40.2680   26.9160 H   0  0  0  0  0  0  0  0  0  0  0  0
   31.2420   39.6890   25.7350 H   0  0  0  0  0  0  0  0  0  0  0  0
   31.8600   38.0330   25.3420 H   0  0  0  0  0  0  0  0  0  0  0  0
   31.3400   39.1940   28.1810 H   0  0  0  0  0  0  0  0  0  0  0  0
   30.4630   37.8000   27.3580 H   0  0  0  0  0  0  0  0  0  0  0  0
   33.9180   35.0560   23.6990 C   0  0  0  0  0  0  0  0  0  0  0  0
   33.2370   35.6600   24.3620 H   0  0  0  0  0  0  0  0  0  0  0  0
   33.3790   34.1170   23.3930 H   0  0  0  0  0  0  0  0  0  0  0  0
   35.2010   34.7100   24.4510 C   0  0  0  0  0  0  0  0  0  0  0  0
   35.8100   33.9650   23.8970 H   0  0  0  0  0  0  0  0  0  0  0  0
   35.8110   35.6220   24.6400 H   0  0  0  0  0  0  0  0  0  0  0  0
   34.9310   34.2720   25.4440 H   0  0  0  0  0  0  0  0  0  0  0  0
  1  3  2  0  0  0  0
  1  7  1  0  0  0  0
  1 21  1  0  0  0  0
  2 12  1  0  0  0  0
  2 17  2  0  0  0  0
  2 18  1  0  0  0  0
  3 13  1  0  0  0  0
  3 14  1  0  0  0  0
  4 16  2  0  0  0  0
  4 19  1  0  0  0  0
  4 20  1  0  0  0  0
  5  6  1  0  0  0  0
  5 10  1  0  0  0  0
  5 11  2  0  0  0  0
  6 12  2  0  0  0  0
  6 22  1  0  0  0  0
  7  8  2  0  0  0  0
  7 27  1  0  0  0  0
  8  9  1  0  0  0  0
  8 23  1  0  0  0  0
  9 13  2  0  0  0  0
  9 24  1  0  0  0  0
 10 18  1  0  0  0  0
 10 19  2  0  0  0  0
 11 16  1  0  0  0  0
 11 25  1  0  0  0  0
 12 15  1  0  0  0  0
 13 15  1  0  0  0  0
 18 43  1  0  0  0  0
 20 26  1  0  0  0  0
 20 30  1  0  0  0  0
 28 29  1  0  0  0  0
 28 33  1  0  0  0  0
 28 34  1  0  0  0  0
 28 35  1  0  0  0  0
 29 30  1  0  0  0  0
 29 36  1  0  0  0  0
 29 37  1  0  0  0  0
 30 31  1  0  0  0  0
 30 38  1  0  0  0  0
 31 32  1  0  0  0  0
 31 39  1  0  0  0  0
 31 40  1  0  0  0  0
 32 33  1  0  0  0  0
 32 41  1  0  0  0  0
 32 42  1  0  0  0  0
 43 44  1  0  0  0  0
 43 45  1  0  0  0  0
 43 46  1  0  0  0  0
 46 47  1  0  0  0  0
 46 48  1  0  0  0  0
 46 49  1  0  0  0  0
M  END
$$$$
