26.pdb
 OpenBabel02232411163D

 43 46  0  0  0  0  0  0  0  0999 V2000
    3.8910  -50.0230    6.2950 O   0  5  0  0  0  0  0  0  0  0  0  0
    3.1310  -49.1280    6.6900 C   0  0  0  0  0  0  0  0  0  0  0  0
    3.4040  -48.0590    7.2400 O   0  0  0  0  0  0  0  0  0  0  0  0
    1.6250  -49.4530    6.4720 C   0  0  0  0  0  0  0  0  0  0  0  0
    1.3170  -50.7380    6.9660 O   0  0  0  0  0  0  0  0  0  0  0  0
   -0.0340  -50.9480    6.6800 C   0  0  0  0  0  0  0  0  0  0  0  0
   -0.7880  -52.0570    7.0440 C   0  0  0  0  0  0  0  0  0  0  0  0
   -0.3840  -52.9030    7.6000 H   0  0  0  0  0  0  0  0  0  0  0  0
   -2.1330  -52.0360    6.6630 C   0  0  0  0  0  0  0  0  0  0  0  0
   -2.7880  -52.8640    6.9430 H   0  0  0  0  0  0  0  0  0  0  0  0
   -2.6660  -50.9660    5.9240 C   0  0  0  0  0  0  0  0  0  0  0  0
   -3.7210  -50.9860    5.6480 H   0  0  0  0  0  0  0  0  0  0  0  0
   -1.8850  -49.8710    5.5430 C   0  0  0  0  0  0  0  0  0  0  0  0
   -2.3250  -49.0900    4.9250 H   0  0  0  0  0  0  0  0  0  0  0  0
   -0.5530  -49.8230    5.9620 C   0  0  0  0  0  0  0  0  0  0  0  0
    0.5360  -48.8590    5.8850 C   0  0  0  0  0  0  0  0  0  0  0  0
    0.4150  -47.4800    5.3440 C   0  0  0  0  0  0  0  0  0  0  0  0
    1.4240  -47.0650    5.0960 H   0  0  0  0  0  0  0  0  0  0  0  0
   -0.1980  -47.5050    4.4080 H   0  0  0  0  0  0  0  0  0  0  0  0
   -0.2710  -46.5140    6.3330 C   0  0  0  0  0  0  0  0  0  0  0  0
    0.1230  -46.6640    7.3650 H   0  0  0  0  0  0  0  0  0  0  0  0
   -0.0620  -45.4600    6.0380 H   0  0  0  0  0  0  0  0  0  0  0  0
   -1.7820  -46.7400    6.3340 C   0  0  0  0  0  0  0  0  0  0  0  0
   -2.2400  -46.6100    5.3330 H   0  0  0  0  0  0  0  0  0  0  0  0
   -2.0700  -47.7080    6.8060 H   0  0  0  0  0  0  0  0  0  0  0  0
   -2.3380  -45.7470    7.2690 O   0  0  0  0  0  0  0  0  0  0  0  0
   -3.5910  -45.2730    6.9570 C   0  0  0  0  0  0  0  0  0  0  0  0
   -4.5800  -45.4790    7.9850 C   0  0  0  0  0  0  0  0  0  0  0  0
   -5.8550  -44.8820    7.8090 C   0  0  0  0  0  0  0  0  0  0  0  0
   -6.1380  -44.1540    6.6110 C   0  0  0  0  0  0  0  0  0  0  0  0
   -7.1300  -43.7210    6.4800 H   0  0  0  0  0  0  0  0  0  0  0  0
   -5.1780  -44.0170    5.6390 C   0  0  0  0  0  0  0  0  0  0  0  0
   -5.3930  -43.4690    4.7190 H   0  0  0  0  0  0  0  0  0  0  0  0
   -3.8850  -44.5830    5.8000 C   0  0  0  0  0  0  0  0  0  0  0  0
   -3.1650  -44.4470    5.0020 H   0  0  0  0  0  0  0  0  0  0  0  0
   -6.8350  -45.0530    8.8350 C   0  0  0  0  0  0  0  0  0  0  0  0
   -7.8120  -44.5990    8.6990 H   0  0  0  0  0  0  0  0  0  0  0  0
   -6.5520  -45.8000    9.9520 C   0  0  0  0  0  0  0  0  0  0  0  0
   -7.2960  -45.9120   10.7400 H   0  0  0  0  0  0  0  0  0  0  0  0
   -5.3000  -46.4630   10.0830 C   0  0  0  0  0  0  0  0  0  0  0  0
   -5.1440  -47.1230   10.9320 H   0  0  0  0  0  0  0  0  0  0  0  0
   -4.3280  -46.2960    9.1270 C   0  0  0  0  0  0  0  0  0  0  0  0
   -3.3550  -46.7900    9.2170 H   0  0  0  0  0  0  0  0  0  0  0  0
  1  2  1  0  0  0  0
  2  3  2  0  0  0  0
  4  2  1  0  0  0  0
  4  5  1  0  0  0  0
  6  7  1  0  0  0  0
  6  5  1  0  0  0  0
  7  8  1  0  0  0  0
  9 10  1  0  0  0  0
  9  7  2  0  0  0  0
 11  9  1  0  0  0  0
 12 11  1  0  0  0  0
 13 11  2  0  0  0  0
 13 15  1  0  0  0  0
 14 13  1  0  0  0  0
 15  6  2  0  0  0  0
 16 15  1  0  0  0  0
 16  4  2  0  0  0  0
 17 16  1  0  0  0  0
 17 20  1  0  0  0  0
 18 17  1  0  0  0  0
 19 17  1  0  0  0  0
 20 22  1  0  0  0  0
 20 23  1  0  0  0  0
 21 20  1  0  0  0  0
 23 25  1  0  0  0  0
 23 24  1  0  0  0  0
 26 23  1  0  0  0  0
 26 27  1  0  0  0  0
 27 34  1  0  0  0  0
 28 27  2  0  0  0  0
 28 29  1  0  0  0  0
 29 30  2  0  0  0  0
 30 32  1  0  0  0  0
 30 31  1  0  0  0  0
 32 33  1  0  0  0  0
 34 35  1  0  0  0  0
 34 32  2  0  0  0  0
 36 29  1  0  0  0  0
 36 37  1  0  0  0  0
 38 36  2  0  0  0  0
 39 38  1  0  0  0  0
 40 42  2  0  0  0  0
 40 38  1  0  0  0  0
 41 40  1  0  0  0  0
 42 28  1  0  0  0  0
 43 42  1  0  0  0  0
M  CHG  1   1  -1
M  END
$$$$
