18652-1
 OpenBabel02232411163D
Structure written by MMmdl.
 55 56  0  0  0  0  0  0  0  0999 V2000
   23.2320   10.4920   28.9590 C   0  0  0  0  0  0  0  0  0  0  0  0
   23.5900   10.9400   30.3650 C   0  0  0  0  0  0  0  0  0  0  0  0
   24.1130   12.3690   30.4300 C   0  0  0  0  0  0  0  0  0  0  0  0
   22.3420   11.0490   31.1920 O   0  0  0  0  0  0  0  0  0  0  0  0
   21.6990    9.9360   31.5900 C   0  0  0  0  0  0  0  0  0  0  0  0
   22.1690    8.7200   31.2170 N   0  0  0  0  0  0  0  0  0  0  0  0
   21.4170    7.6110   31.5600 C   0  0  0  0  0  0  0  0  0  0  0  0
   20.2500    7.6940   32.3120 C   0  0  0  0  0  0  0  0  0  0  0  0
   19.7790    8.9670   32.7310 C   0  0  0  0  0  0  0  0  0  0  0  0
   18.6120    9.0500   33.4510 N   0  0  0  0  0  0  0  0  0  0  0  0
   20.5180   10.1380   32.3690 C   0  0  0  0  0  0  0  0  0  0  0  0
   20.1310   11.4530   32.7050 C   0  0  0  0  0  0  0  0  0  0  0  0
   19.8580   12.5540   32.9490 N   0  0  0  0  0  0  0  0  0  0  0  0
   21.9590    6.4110   31.0300 N   0  0  0  0  0  0  0  0  0  0  0  0
   21.2600    5.1920   30.9110 C   0  0  0  0  0  0  0  0  0  0  0  0
   20.1720    5.0060   31.4140 O   0  0  0  0  0  0  0  0  0  0  0  0
   21.9420    4.1650   30.0210 C   0  0  0  0  0  0  0  0  0  0  0  0
   23.3100    3.7270   30.4530 C   0  0  0  0  0  0  0  0  0  0  0  0
   24.4650    4.4250   29.9940 C   0  0  0  0  0  0  0  0  0  0  0  0
   24.1500    5.5580   29.2510 O   0  0  0  0  0  0  0  0  0  0  0  0
   25.1960    6.5550   29.0890 C   0  0  0  0  0  0  0  0  0  0  0  0
   25.7490    3.9440   30.2300 C   0  0  0  0  0  0  0  0  0  0  0  0
   25.9400    2.7760   30.9910 C   0  0  0  0  0  0  0  0  0  0  0  0
   27.5750    2.1580   31.1490 S   0  0  0  0  0  0  0  0  0  0  0  0
   27.7060    1.4400   32.4380 O   0  0  0  0  0  0  0  0  0  0  0  0
   28.5550    3.2690   31.0670 O   0  0  0  0  0  0  0  0  0  0  0  0
   27.7430    1.0810   29.8000 C   0  0  0  0  0  0  0  0  0  0  0  0
   24.8080    2.1360   31.5180 C   0  0  0  0  0  0  0  0  0  0  0  0
   23.4980    2.5930   31.2270 C   0  0  0  0  0  0  0  0  0  0  0  0
   25.0680    1.0730   32.3470 O   0  0  0  0  0  0  0  0  0  0  0  0
   23.9790    0.1510   32.6360 C   0  0  0  0  0  0  0  0  0  0  0  0
   22.8340    9.4510   28.9550 H   0  0  0  0  0  0  0  0  0  0  0  0
   22.4770   11.1680   28.4980 H   0  0  0  0  0  0  0  0  0  0  0  0
   24.1480   10.5160   28.3210 H   0  0  0  0  0  0  0  0  0  0  0  0
   24.2660   10.2170   30.8770 H   0  0  0  0  0  0  0  0  0  0  0  0
   24.4060   12.6450   31.4650 H   0  0  0  0  0  0  0  0  0  0  0  0
   25.0100   12.4550   29.7680 H   0  0  0  0  0  0  0  0  0  0  0  0
   23.3460   13.0930   30.0670 H   0  0  0  0  0  0  0  0  0  0  0  0
   19.6760    6.8000   32.5680 H   0  0  0  0  0  0  0  0  0  0  0  0
   18.0980    8.1950   33.7330 H   0  0  0  0  0  0  0  0  0  0  0  0
   18.2240    9.9490   33.7350 H   0  0  0  0  0  0  0  0  0  0  0  0
   22.8770    6.5030   30.5350 H   0  0  0  0  0  0  0  0  0  0  0  0
   21.2790    3.2630   29.9520 H   0  0  0  0  0  0  0  0  0  0  0  0
   22.0210    4.6260   28.9940 H   0  0  0  0  0  0  0  0  0  0  0  0
   25.9250    6.1950   28.3330 H   0  0  0  0  0  0  0  0  0  0  0  0
   24.6140    7.4300   28.7170 H   0  0  0  0  0  0  0  0  0  0  0  0
   25.6790    6.7790   30.0650 H   0  0  0  0  0  0  0  0  0  0  0  0
   26.6090    4.4690   29.7990 H   0  0  0  0  0  0  0  0  0  0  0  0
   27.6660    1.6210   28.8190 H   0  0  0  0  0  0  0  0  0  0  0  0
   28.7300    0.5490   29.7900 H   0  0  0  0  0  0  0  0  0  0  0  0
   26.9500    0.2890   29.7810 H   0  0  0  0  0  0  0  0  0  0  0  0
   22.6330    2.0400   31.5960 H   0  0  0  0  0  0  0  0  0  0  0  0
   23.2080    0.6440   33.2660 H   0  0  0  0  0  0  0  0  0  0  0  0
   23.5650   -0.2500   31.6860 H   0  0  0  0  0  0  0  0  0  0  0  0
   24.5080   -0.6500   33.2080 H   0  0  0  0  0  0  0  0  0  0  0  0
  1  2  1  0  0  0  0
  1 32  1  0  0  0  0
  1 33  1  0  0  0  0
  1 34  1  0  0  0  0
  2  3  1  0  0  0  0
  2  4  1  0  0  0  0
  2 35  1  0  0  0  0
  3 36  1  0  0  0  0
  3 37  1  0  0  0  0
  3 38  1  0  0  0  0
  4  5  1  0  0  0  0
  5 11  2  0  0  0  0
  5  6  1  0  0  0  0
  6  7  2  0  0  0  0
  7  8  1  0  0  0  0
  7 14  1  0  0  0  0
  8  9  2  0  0  0  0
  8 39  1  0  0  0  0
  9 10  1  0  0  0  0
  9 11  1  0  0  0  0
 10 40  1  0  0  0  0
 10 41  1  0  0  0  0
 11 12  1  0  0  0  0
 12 13  3  0  0  0  0
 14 15  1  0  0  0  0
 14 42  1  0  0  0  0
 15 16  2  0  0  0  0
 15 17  1  0  0  0  0
 17 18  1  0  0  0  0
 17 43  1  0  0  0  0
 17 44  1  0  0  0  0
 18 29  2  0  0  0  0
 18 19  1  0  0  0  0
 19 20  1  0  0  0  0
 19 22  2  0  0  0  0
 20 21  1  0  0  0  0
 21 45  1  0  0  0  0
 21 46  1  0  0  0  0
 21 47  1  0  0  0  0
 22 23  1  0  0  0  0
 22 48  1  0  0  0  0
 23 24  1  0  0  0  0
 23 28  2  0  0  0  0
 24 25  2  0  0  0  0
 24 26  2  0  0  0  0
 24 27  1  0  0  0  0
 27 49  1  0  0  0  0
 27 50  1  0  0  0  0
 27 51  1  0  0  0  0
 28 29  1  0  0  0  0
 28 30  1  0  0  0  0
 29 52  1  0  0  0  0
 30 31  1  0  0  0  0
 31 53  1  0  0  0  0
 31 54  1  0  0  0  0
 31 55  1  0  0  0  0
M  END
$$$$
