18639-1
 OpenBabel02232411163D
Structure written by MMmdl.
 48 49  0  0  0  0  0  0  0  0999 V2000
   23.9000   12.5880   30.3480 C   0  0  0  0  0  0  0  0  0  0  0  0
   23.4330   11.1480   30.4500 C   0  0  0  0  0  0  0  0  0  0  0  0
   22.1820   11.2550   31.2470 O   0  0  0  0  0  0  0  0  0  0  0  0
   21.5500   10.1170   31.6000 C   0  0  0  0  0  0  0  0  0  0  0  0
   22.0270    8.9280   31.1580 N   0  0  0  0  0  0  0  0  0  0  0  0
   21.3010    7.7920   31.4790 C   0  0  0  0  0  0  0  0  0  0  0  0
   20.1460    7.8280   32.2530 C   0  0  0  0  0  0  0  0  0  0  0  0
   19.6630    9.0770   32.7280 C   0  0  0  0  0  0  0  0  0  0  0  0
   18.5170    9.1150   33.4810 N   0  0  0  0  0  0  0  0  0  0  0  0
   20.3740   10.2740   32.3940 C   0  0  0  0  0  0  0  0  0  0  0  0
   19.9670   11.5730   32.7660 C   0  0  0  0  0  0  0  0  0  0  0  0
   19.6810   12.6650   33.0320 N   0  0  0  0  0  0  0  0  0  0  0  0
   21.8710    6.6230   30.9210 N   0  0  0  0  0  0  0  0  0  0  0  0
   21.2620    5.3540   30.8380 C   0  0  0  0  0  0  0  0  0  0  0  0
   20.1680    5.1150   31.3030 O   0  0  0  0  0  0  0  0  0  0  0  0
   22.0740    4.3400   30.0390 C   0  0  0  0  0  0  0  0  0  0  0  0
   23.4270    4.0380   30.6120 C   0  0  0  0  0  0  0  0  0  0  0  0
   24.5440    4.8780   30.3090 C   0  0  0  0  0  0  0  0  0  0  0  0
   24.2170    5.9280   29.4620 O   0  0  0  0  0  0  0  0  0  0  0  0
   25.1980    6.9880   29.2910 C   0  0  0  0  0  0  0  0  0  0  0  0
   25.8120    4.6140   30.8040 C   0  0  0  0  0  0  0  0  0  0  0  0
   26.0080    3.4940   31.6400 C   0  0  0  0  0  0  0  0  0  0  0  0
   27.3480    3.2150   32.1660 N   0  3  0  0  0  0  0  0  0  0  0  0
   27.4500    2.4330   33.0990 O   0  5  0  0  0  0  0  0  0  0  0  0
   28.3080    3.7690   31.6440 O   0  0  0  0  0  0  0  0  0  0  0  0
   24.9160    2.6480   31.9430 C   0  0  0  0  0  0  0  0  0  0  0  0
   23.6340    2.9260   31.4120 C   0  0  0  0  0  0  0  0  0  0  0  0
   25.2320    1.6040   32.7590 O   0  0  0  0  0  0  0  0  0  0  0  0
   24.2160    0.5800   32.9760 C   0  0  0  0  0  0  0  0  0  0  0  0
   24.7910   12.6260   29.6710 H   0  0  0  0  0  0  0  0  0  0  0  0
   23.1050   13.2370   29.9100 H   0  0  0  0  0  0  0  0  0  0  0  0
   24.1890   12.9950   31.3420 H   0  0  0  0  0  0  0  0  0  0  0  0
   23.1620   10.7150   29.4610 H   0  0  0  0  0  0  0  0  0  0  0  0
   24.1480   10.5030   31.0070 H   0  0  0  0  0  0  0  0  0  0  0  0
   19.5930    6.9150   32.4840 H   0  0  0  0  0  0  0  0  0  0  0  0
   18.0160    8.2420   33.7350 H   0  0  0  0  0  0  0  0  0  0  0  0
   18.1140    9.9990   33.7920 H   0  0  0  0  0  0  0  0  0  0  0  0
   22.7930    6.7600   30.4360 H   0  0  0  0  0  0  0  0  0  0  0  0
   21.4790    3.3910   29.9660 H   0  0  0  0  0  0  0  0  0  0  0  0
   22.2070    4.7560   29.0000 H   0  0  0  0  0  0  0  0  0  0  0  0
   25.5200    7.3870   30.2770 H   0  0  0  0  0  0  0  0  0  0  0  0
   26.0480    6.6040   28.6880 H   0  0  0  0  0  0  0  0  0  0  0  0
   24.6040    7.7430   28.7260 H   0  0  0  0  0  0  0  0  0  0  0  0
   26.6680    5.2500   30.5490 H   0  0  0  0  0  0  0  0  0  0  0  0
   22.8020    2.2530   31.6340 H   0  0  0  0  0  0  0  0  0  0  0  0
   24.7790   -0.1600   33.5930 H   0  0  0  0  0  0  0  0  0  0  0  0
   23.3600    1.0040   33.5430 H   0  0  0  0  0  0  0  0  0  0  0  0
   23.9080    0.1380   32.0040 H   0  0  0  0  0  0  0  0  0  0  0  0
  1  2  1  0  0  0  0
  1 30  1  0  0  0  0
  1 31  1  0  0  0  0
  1 32  1  0  0  0  0
  2  3  1  0  0  0  0
  2 33  1  0  0  0  0
  2 34  1  0  0  0  0
  3  4  1  0  0  0  0
  4 10  2  0  0  0  0
  4  5  1  0  0  0  0
  5  6  2  0  0  0  0
  6  7  1  0  0  0  0
  6 13  1  0  0  0  0
  7  8  2  0  0  0  0
  7 35  1  0  0  0  0
  8  9  1  0  0  0  0
  8 10  1  0  0  0  0
  9 36  1  0  0  0  0
  9 37  1  0  0  0  0
 10 11  1  0  0  0  0
 11 12  3  0  0  0  0
 13 14  1  0  0  0  0
 13 38  1  0  0  0  0
 14 15  2  0  0  0  0
 14 16  1  0  0  0  0
 16 17  1  0  0  0  0
 16 39  1  0  0  0  0
 16 40  1  0  0  0  0
 17 27  2  0  0  0  0
 17 18  1  0  0  0  0
 18 19  1  0  0  0  0
 18 21  2  0  0  0  0
 19 20  1  0  0  0  0
 20 41  1  0  0  0  0
 20 42  1  0  0  0  0
 20 43  1  0  0  0  0
 21 22  1  0  0  0  0
 21 44  1  0  0  0  0
 22 23  1  0  0  0  0
 22 26  2  0  0  0  0
 23 24  1  0  0  0  0
 23 25  2  0  0  0  0
 26 27  1  0  0  0  0
 26 28  1  0  0  0  0
 27 45  1  0  0  0  0
 28 29  1  0  0  0  0
 29 46  1  0  0  0  0
 29 47  1  0  0  0  0
 29 48  1  0  0  0  0
M  CHG  2  23   1  24  -1
M  END
$$$$
