18634-1
 OpenBabel02232411163D
Structure written by MMmdl.
 46 47  0  0  0  0  0  0  0  0999 V2000
   23.8610   12.6000   30.3320 C   0  0  0  0  0  0  0  0  0  0  0  0
   23.4340   11.1510   30.4740 C   0  0  0  0  0  0  0  0  0  0  0  0
   22.1790   11.2470   31.2620 O   0  0  0  0  0  0  0  0  0  0  0  0
   21.5370   10.1080   31.5970 C   0  0  0  0  0  0  0  0  0  0  0  0
   22.0090    8.9200   31.1550 N   0  0  0  0  0  0  0  0  0  0  0  0
   21.2740    7.7830   31.4650 C   0  0  0  0  0  0  0  0  0  0  0  0
   20.1170    7.8260   32.2400 C   0  0  0  0  0  0  0  0  0  0  0  0
   19.6380    9.0770   32.7100 C   0  0  0  0  0  0  0  0  0  0  0  0
   18.4920    9.1260   33.4640 N   0  0  0  0  0  0  0  0  0  0  0  0
   20.3510   10.2720   32.3750 C   0  0  0  0  0  0  0  0  0  0  0  0
   19.9320   11.5720   32.7250 C   0  0  0  0  0  0  0  0  0  0  0  0
   19.6290   12.6650   32.9680 N   0  0  0  0  0  0  0  0  0  0  0  0
   21.8350    6.6230   30.8900 N   0  0  0  0  0  0  0  0  0  0  0  0
   21.2630    5.3280   30.8570 C   0  0  0  0  0  0  0  0  0  0  0  0
   20.2020    5.0640   31.3820 O   0  0  0  0  0  0  0  0  0  0  0  0
   22.0780    4.3320   30.0420 C   0  0  0  0  0  0  0  0  0  0  0  0
   23.4150    4.0350   30.6550 C   0  0  0  0  0  0  0  0  0  0  0  0
   24.5370    4.8690   30.3760 C   0  0  0  0  0  0  0  0  0  0  0  0
   24.2350    5.9110   29.5050 O   0  0  0  0  0  0  0  0  0  0  0  0
   25.2340    6.9510   29.3370 C   0  0  0  0  0  0  0  0  0  0  0  0
   25.7910    4.6170   30.9210 C   0  0  0  0  0  0  0  0  0  0  0  0
   25.9650    3.5220   31.7820 C   0  0  0  0  0  0  0  0  0  0  0  0
   24.8730    2.7030   32.0610 C   0  0  0  0  0  0  0  0  0  0  0  0
   23.5980    2.9410   31.4890 C   0  0  0  0  0  0  0  0  0  0  0  0
   24.8760    1.5980   32.8880 O   0  0  0  0  0  0  0  0  0  0  0  0
   26.1250    1.2510   33.5370 C   0  0  0  0  0  0  0  0  0  0  0  0
   24.0460   13.0680   31.3250 H   0  0  0  0  0  0  0  0  0  0  0  0
   23.0860   13.1940   29.7930 H   0  0  0  0  0  0  0  0  0  0  0  0
   24.8060   12.6380   29.7350 H   0  0  0  0  0  0  0  0  0  0  0  0
   23.1870   10.6830   29.4940 H   0  0  0  0  0  0  0  0  0  0  0  0
   24.1630   10.5440   31.0560 H   0  0  0  0  0  0  0  0  0  0  0  0
   19.5610    6.9160   32.4760 H   0  0  0  0  0  0  0  0  0  0  0  0
   18.0970   10.0140   33.7730 H   0  0  0  0  0  0  0  0  0  0  0  0
   17.9840    8.2590   33.7260 H   0  0  0  0  0  0  0  0  0  0  0  0
   22.7530    6.7670   30.3980 H   0  0  0  0  0  0  0  0  0  0  0  0
   21.4880    3.3840   29.9440 H   0  0  0  0  0  0  0  0  0  0  0  0
   22.2330    4.7620   29.0140 H   0  0  0  0  0  0  0  0  0  0  0  0
   26.1080    6.5410   28.7890 H   0  0  0  0  0  0  0  0  0  0  0  0
   24.6810    7.6970   28.7230 H   0  0  0  0  0  0  0  0  0  0  0  0
   25.5230    7.3760   30.3230 H   0  0  0  0  0  0  0  0  0  0  0  0
   26.6560    5.2450   30.6960 H   0  0  0  0  0  0  0  0  0  0  0  0
   26.9560    3.3430   32.2040 H   0  0  0  0  0  0  0  0  0  0  0  0
   22.7810    2.2510   31.7160 H   0  0  0  0  0  0  0  0  0  0  0  0
   26.8990    1.0040   32.7780 H   0  0  0  0  0  0  0  0  0  0  0  0
   26.4530    2.0750   34.2070 H   0  0  0  0  0  0  0  0  0  0  0  0
   25.8350    0.3460   34.1220 H   0  0  0  0  0  0  0  0  0  0  0  0
  1  2  1  0  0  0  0
  1 27  1  0  0  0  0
  1 28  1  0  0  0  0
  1 29  1  0  0  0  0
  2  3  1  0  0  0  0
  2 30  1  0  0  0  0
  2 31  1  0  0  0  0
  3  4  1  0  0  0  0
  4 10  2  0  0  0  0
  4  5  1  0  0  0  0
  5  6  2  0  0  0  0
  6  7  1  0  0  0  0
  6 13  1  0  0  0  0
  7  8  2  0  0  0  0
  7 32  1  0  0  0  0
  8  9  1  0  0  0  0
  8 10  1  0  0  0  0
  9 33  1  0  0  0  0
  9 34  1  0  0  0  0
 10 11  1  0  0  0  0
 11 12  3  0  0  0  0
 13 14  1  0  0  0  0
 13 35  1  0  0  0  0
 14 15  2  0  0  0  0
 14 16  1  0  0  0  0
 16 17  1  0  0  0  0
 16 36  1  0  0  0  0
 16 37  1  0  0  0  0
 17 24  2  0  0  0  0
 17 18  1  0  0  0  0
 18 19  1  0  0  0  0
 18 21  2  0  0  0  0
 19 20  1  0  0  0  0
 20 38  1  0  0  0  0
 20 39  1  0  0  0  0
 20 40  1  0  0  0  0
 21 22  1  0  0  0  0
 21 41  1  0  0  0  0
 22 23  2  0  0  0  0
 22 42  1  0  0  0  0
 23 24  1  0  0  0  0
 23 25  1  0  0  0  0
 24 43  1  0  0  0  0
 25 26  1  0  0  0  0
 26 44  1  0  0  0  0
 26 45  1  0  0  0  0
 26 46  1  0  0  0  0
M  END
$$$$
