p38a_2k
 OpenBabel02232411163D
Structure written by MMmdl.
 43 46  0  0  0  0  0  0  0  0999 V2000
   38.2780   36.5430   17.1460 C   0  0  0  0  0  0  0  0  0  0  0  0
   34.5050   35.0870   21.1780 C   0  0  0  0  0  0  0  0  0  0  0  0
   37.4820   36.0840   18.1920 C   0  0  0  0  0  0  0  0  0  0  0  0
   33.8980   39.1460   23.7310 C   0  0  0  0  0  0  0  0  0  0  0  0
   34.5840   37.9740   21.3260 C   0  0  0  0  0  0  0  0  0  0  0  0
   34.9960   37.3110   20.1170 C   0  0  0  0  0  0  0  0  0  0  0  0
   37.6420   36.7140   15.9090 C   0  0  0  0  0  0  0  0  0  0  0  0
   36.2930   36.4260   15.6890 C   0  0  0  0  0  0  0  0  0  0  0  0
   35.5190   35.9510   16.7520 C   0  0  0  0  0  0  0  0  0  0  0  0
   34.1990   37.1980   22.4560 C   0  0  0  0  0  0  0  0  0  0  0  0
   34.5570   39.3860   21.4880 C   0  0  0  0  0  0  0  0  0  0  0  0
   34.9870   35.9580   20.0720 C   0  0  0  0  0  0  0  0  0  0  0  0
   36.1200   35.7710   18.0010 C   0  0  0  0  0  0  0  0  0  0  0  0
   33.8390   35.2690   23.2080 H   0  0  0  0  0  0  0  0  0  0  0  0
   38.0020   35.9370   19.4040 F   0  0  0  0  0  0  0  0  0  0  0  0
   35.3880   35.1410   19.0160 O   0  0  0  0  0  0  0  0  0  0  0  0
   34.2350   39.9810   22.6460 N   0  0  0  0  0  0  0  0  0  0  0  0
   34.3930   33.8810   21.1590 O   0  0  0  0  0  0  0  0  0  0  0  0
   34.1490   35.8000   22.3700 N   0  0  0  0  0  0  0  0  0  0  0  0
   33.8700   37.7630   23.6600 N   0  0  0  0  0  0  0  0  0  0  0  0
   33.5180   39.7530   24.9050 N   0  0  0  0  0  0  0  0  0  0  0  0
   39.3330   36.7940   17.2920 H   0  0  0  0  0  0  0  0  0  0  0  0
   35.3170   37.9300   19.2760 H   0  0  0  0  0  0  0  0  0  0  0  0
   35.8320   36.5810   14.7110 H   0  0  0  0  0  0  0  0  0  0  0  0
   34.4550   35.7400   16.6020 H   0  0  0  0  0  0  0  0  0  0  0  0
   34.8070   40.0410   20.6370 H   0  0  0  0  0  0  0  0  0  0  0  0
   33.6420   40.7790   25.0130 H   0  0  0  0  0  0  0  0  0  0  0  0
   38.3520   37.2160   14.9020 F   0  0  0  0  0  0  0  0  0  0  0  0
   32.1240   39.0160   28.3830 C   0  0  0  0  0  0  0  0  0  0  0  0
   32.2540   39.7050   27.0190 C   0  0  0  0  0  0  0  0  0  0  0  0
   33.3320   38.9890   26.1770 C   0  0  0  0  0  0  0  0  0  0  0  0
   34.6620   38.9140   26.9580 C   0  0  0  0  0  0  0  0  0  0  0  0
   34.4220   38.2690   28.3290 C   0  0  0  0  0  0  0  0  0  0  0  0
   33.3940   38.9620   29.0730 O   0  0  0  0  0  0  0  0  0  0  0  0
   31.7250   37.9820   28.2710 H   0  0  0  0  0  0  0  0  0  0  0  0
   31.5020   39.6190   29.0840 H   0  0  0  0  0  0  0  0  0  0  0  0
   32.5350   40.7750   27.1650 H   0  0  0  0  0  0  0  0  0  0  0  0
   31.2760   39.6680   26.4830 H   0  0  0  0  0  0  0  0  0  0  0  0
   32.9760   37.9490   25.9330 H   0  0  0  0  0  0  0  0  0  0  0  0
   35.4030   38.3020   26.3910 H   0  0  0  0  0  0  0  0  0  0  0  0
   35.0820   39.9400   27.0880 H   0  0  0  0  0  0  0  0  0  0  0  0
   34.1290   37.1990   28.2200 H   0  0  0  0  0  0  0  0  0  0  0  0
   35.3110   38.3850   28.9910 H   0  0  0  0  0  0  0  0  0  0  0  0
  1  3  2  0  0  0  0
  1  7  1  0  0  0  0
  1 22  1  0  0  0  0
  2 12  1  0  0  0  0
  2 18  2  0  0  0  0
  2 19  1  0  0  0  0
  3 13  1  0  0  0  0
  3 15  1  0  0  0  0
  4 17  2  0  0  0  0
  4 20  1  0  0  0  0
  4 21  1  0  0  0  0
  5  6  1  0  0  0  0
  5 10  1  0  0  0  0
  5 11  2  0  0  0  0
  6 12  2  0  0  0  0
  6 23  1  0  0  0  0
  7  8  2  0  0  0  0
  7 28  1  0  0  0  0
  8  9  1  0  0  0  0
  8 24  1  0  0  0  0
  9 13  2  0  0  0  0
  9 25  1  0  0  0  0
 10 19  1  0  0  0  0
 10 20  2  0  0  0  0
 11 17  1  0  0  0  0
 11 26  1  0  0  0  0
 12 16  1  0  0  0  0
 13 16  1  0  0  0  0
 14 19  1  0  0  0  0
 21 27  1  0  0  0  0
 21 31  1  0  0  0  0
 29 30  1  0  0  0  0
 29 34  1  0  0  0  0
 29 35  1  0  0  0  0
 29 36  1  0  0  0  0
 30 31  1  0  0  0  0
 30 37  1  0  0  0  0
 30 38  1  0  0  0  0
 31 32  1  0  0  0  0
 31 39  1  0  0  0  0
 32 33  1  0  0  0  0
 32 40  1  0  0  0  0
 32 41  1  0  0  0  0
 33 34  1  0  0  0  0
 33 42  1  0  0  0  0
 33 43  1  0  0  0  0
M  END
$$$$
