CAT-4m
                    3D
 Schrodinger Suite 2022-3.
 48 51  0  0  1  0  0  0  0  0999 V2000
   15.2580    4.0870    0.8640 C   0  0  0  0  0  0  0  0  0  0  0  0
   14.9250    3.4930   -0.4630 C   0  0  0  0  0  0  0  0  0  0  0  0
   14.1890    4.2190   -1.4290 C   0  0  0  0  0  0  0  0  0  0  0  0
   13.8560    3.7080   -2.6400 N   0  0  0  0  0  0  0  0  0  0  0  0
   14.2470    2.4450   -2.9440 C   0  0  0  0  0  0  0  0  0  0  0  0
   14.9780    1.6460   -2.0390 C   0  0  0  0  0  0  0  0  0  0  0  0
   15.3520    0.2590   -2.3820 C   0  0  0  0  0  0  0  0  0  0  0  0
   16.0500   -0.0440   -3.5660 C   0  0  0  0  0  0  0  0  0  0  0  0
   16.3860   -1.3660   -3.8560 C   0  0  0  0  0  0  0  0  0  0  0  0
   16.0230   -2.4090   -2.9920 C   0  0  0  0  0  0  0  0  0  0  0  0
   15.3220   -2.1140   -1.8210 C   0  0  0  0  0  0  0  0  0  0  0  0
   14.8450   -3.2010   -0.8750 C   0  0  1  0  0  0  0  0  0  0  0  0
   15.2400   -4.6280   -1.2020 C   0  0  0  0  0  0  0  0  0  0  0  0
   14.3250   -5.5420   -1.7420 C   0  0  0  0  0  0  0  0  0  0  0  0
   14.6890   -6.8830   -1.9000 C   0  0  0  0  0  0  0  0  0  0  0  0
   15.9660   -7.3160   -1.5320 C   0  0  0  0  0  0  0  0  0  0  0  0
   16.9050   -6.3910   -1.0650 C   0  0  0  0  0  0  0  0  0  0  0  0
   16.5470   -5.0510   -0.9060 C   0  0  0  0  0  0  0  0  0  0  0  0
   15.3070   -2.8620    0.5290 N   0  3  0  0  0  0  0  0  0  0  0  0
   14.2440   -2.7530    1.4090 C   0  0  0  0  0  0  0  0  0  0  0  0
   14.3790   -2.6570    2.7620 N   0  0  0  0  0  0  0  0  0  0  0  0
   13.0370   -2.8480    0.7060 N   0  0  0  0  0  0  0  0  0  0  0  0
   11.7530   -2.4710    1.3300 C   0  0  0  0  0  0  0  0  0  0  0  0
   13.2880   -3.0530   -0.7280 C   0  0  0  0  0  0  0  0  0  0  0  0
   12.4080   -3.0750   -1.5280 O   0  0  0  0  0  0  0  0  0  0  0  0
   14.9970   -0.7810   -1.5150 C   0  0  0  0  0  0  0  0  0  0  0  0
   15.3140    2.1870   -0.7890 C   0  0  0  0  0  0  0  0  0  0  0  0
   16.2830    3.7800    1.1890 H   0  0  0  0  0  0  0  0  0  0  0  0
   15.2100    5.2030    0.8410 H   0  0  0  0  0  0  0  0  0  0  0  0
   14.5380    3.7220    1.6360 H   0  0  0  0  0  0  0  0  0  0  0  0
   13.8470    5.2450   -1.2200 H   0  0  0  0  0  0  0  0  0  0  0  0
   13.9600    2.0550   -3.9340 H   0  0  0  0  0  0  0  0  0  0  0  0
   16.3400    0.7530   -4.2580 H   0  0  0  0  0  0  0  0  0  0  0  0
   16.9470   -1.5920   -4.7680 H   0  0  0  0  0  0  0  0  0  0  0  0
   16.2890   -3.4390   -3.2360 H   0  0  0  0  0  0  0  0  0  0  0  0
   13.3240   -5.2280   -2.0470 H   0  0  0  0  0  0  0  0  0  0  0  0
   13.9630   -7.5980   -2.3020 H   0  0  0  0  0  0  0  0  0  0  0  0
   16.2260   -8.3760   -1.5890 H   0  0  0  0  0  0  0  0  0  0  0  0
   17.9150   -6.7110   -0.7970 H   0  0  0  0  0  0  0  0  0  0  0  0
   17.2870   -4.3370   -0.5380 H   0  0  0  0  0  0  0  0  0  0  0  0
   16.2710   -3.0830    0.8870 H   0  0  0  0  0  0  0  0  0  0  0  0
   13.6510   -2.1810    3.3500 H   0  0  0  0  0  0  0  0  0  0  0  0
   10.9050   -2.7610    0.6540 H   0  0  0  0  0  0  0  0  0  0  0  0
   11.6340   -3.0070    2.3120 H   0  0  0  0  0  0  0  0  0  0  0  0
   11.7430   -1.3630    1.5080 H   0  0  0  0  0  0  0  0  0  0  0  0
   14.4670   -0.5550   -0.5910 H   0  0  0  0  0  0  0  0  0  0  0  0
   15.8700    1.5810   -0.0710 H   0  0  0  0  0  0  0  0  0  0  0  0
   15.3510   -2.5360    3.1600 H   0  0  0  0  0  0  0  0  0  0  0  0
  1  2  1  0  0  0  0
  1 28  1  0  0  0  0
  1 29  1  0  0  0  0
  1 30  1  0  0  0  0
  2  3  2  0  0  0  0
  2 27  1  0  0  0  0
  3  4  1  0  0  0  0
  3 31  1  0  0  0  0
  4  5  2  0  0  0  0
  5  6  1  0  0  0  0
  5 32  1  0  0  0  0
  6  7  1  0  0  0  0
  6 27  2  0  0  0  0
  7  8  2  0  0  0  0
  7 26  1  0  0  0  0
  8  9  1  0  0  0  0
  8 33  1  0  0  0  0
  9 10  2  0  0  0  0
  9 34  1  0  0  0  0
 10 11  1  0  0  0  0
 10 35  1  0  0  0  0
 11 12  1  0  0  0  0
 11 26  2  0  0  0  0
 12 13  1  0  0  0  0
 12 19  1  0  0  0  0
 12 24  1  0  0  0  0
 13 14  2  0  0  0  0
 13 18  1  0  0  0  0
 14 15  1  0  0  0  0
 14 36  1  0  0  0  0
 15 16  2  0  0  0  0
 15 37  1  0  0  0  0
 16 17  1  0  0  0  0
 16 38  1  0  0  0  0
 17 18  2  0  0  0  0
 17 39  1  0  0  0  0
 18 40  1  0  0  0  0
 19 20  2  0  0  0  0
 19 41  1  0  0  0  0
 20 21  1  0  0  0  0
 20 22  1  0  0  0  0
 21 42  1  0  0  0  0
 21 48  1  0  0  0  0
 22 23  1  0  0  0  0
 22 24  1  0  0  0  0
 23 43  1  0  0  0  0
 23 44  1  0  0  0  0
 23 45  1  0  0  0  0
 24 25  2  0  0  0  0
 26 46  1  0  0  0  0
 27 47  1  0  0  0  0
M  CHG  1  19   1
M  END
$$$$
