p38a_2u
 OpenBabel02232411163D
Structure written by MMmdl.
 64 68  0  0  0  0  0  0  0  0999 V2000
   38.2720   36.5460   17.1620 C   0  0  0  0  0  0  0  0  0  0  0  0
   34.5190   35.1250   21.2280 C   0  0  0  0  0  0  0  0  0  0  0  0
   37.4800   36.0950   18.2150 C   0  0  0  0  0  0  0  0  0  0  0  0
   33.9860   39.2220   23.7460 C   0  0  0  0  0  0  0  0  0  0  0  0
   34.6060   38.0030   21.3520 C   0  0  0  0  0  0  0  0  0  0  0  0
   35.0090   37.3410   20.1420 C   0  0  0  0  0  0  0  0  0  0  0  0
   37.6300   36.7080   15.9260 C   0  0  0  0  0  0  0  0  0  0  0  0
   36.2800   36.4180   15.7150 C   0  0  0  0  0  0  0  0  0  0  0  0
   35.5100   35.9530   16.7860 C   0  0  0  0  0  0  0  0  0  0  0  0
   34.2270   37.2360   22.4920 C   0  0  0  0  0  0  0  0  0  0  0  0
   34.5920   39.4180   21.4910 C   0  0  0  0  0  0  0  0  0  0  0  0
   34.9980   35.9900   20.1120 C   0  0  0  0  0  0  0  0  0  0  0  0
   36.1160   35.7850   18.0350 C   0  0  0  0  0  0  0  0  0  0  0  0
   38.0080   35.9570   19.4250 F   0  0  0  0  0  0  0  0  0  0  0  0
   35.3870   35.1650   19.0570 O   0  0  0  0  0  0  0  0  0  0  0  0
   34.2980   40.0410   22.6420 N   0  0  0  0  0  0  0  0  0  0  0  0
   34.4280   33.9180   21.1580 O   0  0  0  0  0  0  0  0  0  0  0  0
   34.1420   35.8280   22.4240 N   0  0  0  0  0  0  0  0  0  0  0  0
   33.9360   37.8420   23.6860 N   0  0  0  0  0  0  0  0  0  0  0  0
   33.6510   39.8360   24.9300 N   0  0  0  0  0  0  0  0  0  0  0  0
   39.3270   36.7970   17.3000 H   0  0  0  0  0  0  0  0  0  0  0  0
   35.3240   37.9540   19.2950 H   0  0  0  0  0  0  0  0  0  0  0  0
   35.8140   36.5630   14.7370 H   0  0  0  0  0  0  0  0  0  0  0  0
   34.4460   35.7400   16.6430 H   0  0  0  0  0  0  0  0  0  0  0  0
   34.8310   40.0530   20.6220 H   0  0  0  0  0  0  0  0  0  0  0  0
   33.7860   40.8590   25.0350 H   0  0  0  0  0  0  0  0  0  0  0  0
   38.3350   37.2030   14.9120 F   0  0  0  0  0  0  0  0  0  0  0  0
   32.3830   39.0890   28.4560 C   0  0  0  0  0  0  0  0  0  0  0  0
   32.4700   39.7890   27.0940 C   0  0  0  0  0  0  0  0  0  0  0  0
   33.5100   39.0710   26.2090 C   0  0  0  0  0  0  0  0  0  0  0  0
   34.8680   38.9820   26.9390 C   0  0  0  0  0  0  0  0  0  0  0  0
   34.6750   38.3290   28.3140 C   0  0  0  0  0  0  0  0  0  0  0  0
   33.6760   39.0160   29.1010 O   0  0  0  0  0  0  0  0  0  0  0  0
   31.9730   38.0590   28.3490 H   0  0  0  0  0  0  0  0  0  0  0  0
   31.7940   39.6960   29.1830 H   0  0  0  0  0  0  0  0  0  0  0  0
   32.7660   40.8550   27.2400 H   0  0  0  0  0  0  0  0  0  0  0  0
   31.4730   39.7670   26.5930 H   0  0  0  0  0  0  0  0  0  0  0  0
   33.1440   38.0310   25.9750 H   0  0  0  0  0  0  0  0  0  0  0  0
   35.5790   38.3630   26.3420 H   0  0  0  0  0  0  0  0  0  0  0  0
   35.3040   40.0020   27.0590 H   0  0  0  0  0  0  0  0  0  0  0  0
   34.3840   37.2570   28.2030 H   0  0  0  0  0  0  0  0  0  0  0  0
   35.5880   38.4380   28.9430 H   0  0  0  0  0  0  0  0  0  0  0  0
   34.4640   33.6980   25.6270 C   0  0  0  0  0  0  0  0  0  0  0  0
   34.8820   34.2730   24.2530 C   0  0  0  0  0  0  0  0  0  0  0  0
   33.7030   35.0640   23.6590 C   0  0  0  0  0  0  0  0  0  0  0  0
   32.4960   34.1500   23.3630 C   0  0  0  0  0  0  0  0  0  0  0  0
   32.4350   32.9720   24.3630 C   0  0  0  0  0  0  0  0  0  0  0  0
   34.6650   34.4660   26.4230 H   0  0  0  0  0  0  0  0  0  0  0  0
   35.0990   32.7910   25.8200 H   0  0  0  0  0  0  0  0  0  0  0  0
   35.1770   33.4360   23.5790 H   0  0  0  0  0  0  0  0  0  0  0  0
   35.7630   34.9370   24.4100 H   0  0  0  0  0  0  0  0  0  0  0  0
   33.3770   35.8200   24.4370 H   0  0  0  0  0  0  0  0  0  0  0  0
   31.5640   34.7600   23.4430 H   0  0  0  0  0  0  0  0  0  0  0  0
   32.5460   33.7170   22.3370 H   0  0  0  0  0  0  0  0  0  0  0  0
   31.3630   32.6700   24.4960 H   0  0  0  0  0  0  0  0  0  0  0  0
   33.0170   32.1020   23.9540 H   0  0  0  0  0  0  0  0  0  0  0  0
   33.0060   33.3700   25.6830 N   0  0  0  0  0  0  0  0  0  0  0  0
   32.3820   32.6790   27.1240 S   0  0  0  0  0  0  0  0  0  0  0  0
   31.1470   31.9470   26.7670 O   0  0  0  0  0  0  0  0  0  0  0  0
   32.1200   33.7460   28.1010 O   0  0  0  0  0  0  0  0  0  0  0  0
   33.5910   31.5980   27.7450 C   0  0  0  0  0  0  0  0  0  0  0  0
   33.9440   30.8590   26.9800 H   0  0  0  0  0  0  0  0  0  0  0  0
   34.4930   32.1410   28.1350 H   0  0  0  0  0  0  0  0  0  0  0  0
   33.2010   30.9930   28.6080 H   0  0  0  0  0  0  0  0  0  0  0  0
  1  3  2  0  0  0  0
  1  7  1  0  0  0  0
  1 21  1  0  0  0  0
  2 12  1  0  0  0  0
  2 17  2  0  0  0  0
  2 18  1  0  0  0  0
  3 13  1  0  0  0  0
  3 14  1  0  0  0  0
  4 16  2  0  0  0  0
  4 19  1  0  0  0  0
  4 20  1  0  0  0  0
  5  6  1  0  0  0  0
  5 10  1  0  0  0  0
  5 11  2  0  0  0  0
  6 12  2  0  0  0  0
  6 22  1  0  0  0  0
  7  8  2  0  0  0  0
  7 27  1  0  0  0  0
  8  9  1  0  0  0  0
  8 23  1  0  0  0  0
  9 13  2  0  0  0  0
  9 24  1  0  0  0  0
 10 18  1  0  0  0  0
 10 19  2  0  0  0  0
 11 16  1  0  0  0  0
 11 25  1  0  0  0  0
 12 15  1  0  0  0  0
 13 15  1  0  0  0  0
 18 45  1  0  0  0  0
 20 26  1  0  0  0  0
 20 30  1  0  0  0  0
 28 29  1  0  0  0  0
 28 33  1  0  0  0  0
 28 34  1  0  0  0  0
 28 35  1  0  0  0  0
 29 30  1  0  0  0  0
 29 36  1  0  0  0  0
 29 37  1  0  0  0  0
 30 31  1  0  0  0  0
 30 38  1  0  0  0  0
 31 32  1  0  0  0  0
 31 39  1  0  0  0  0
 31 40  1  0  0  0  0
 32 33  1  0  0  0  0
 32 41  1  0  0  0  0
 32 42  1  0  0  0  0
 43 44  1  0  0  0  0
 43 48  1  0  0  0  0
 43 49  1  0  0  0  0
 43 57  1  0  0  0  0
 44 45  1  0  0  0  0
 44 50  1  0  0  0  0
 44 51  1  0  0  0  0
 45 46  1  0  0  0  0
 45 52  1  0  0  0  0
 46 47  1  0  0  0  0
 46 53  1  0  0  0  0
 46 54  1  0  0  0  0
 47 55  1  0  0  0  0
 47 56  1  0  0  0  0
 47 57  1  0  0  0  0
 57 58  1  0  0  0  0
 58 59  2  0  0  0  0
 58 60  2  0  0  0  0
 58 61  1  0  0  0  0
 61 62  1  0  0  0  0
 61 63  1  0  0  0  0
 61 64  1  0  0  0  0
M  END
$$$$
