47
 OpenBabel02232411163D
Structure written by MMmdl.
 43 46  0  0  0  0  0  0  0  0999 V2000
    3.9740  -50.2010    5.4490 O   0  0  0  0  0  0  0  0  0  0  0  0
    3.2600  -49.5200    6.2080 C   0  0  0  0  0  0  0  0  0  0  0  0
    3.6410  -48.6630    7.0180 O   0  5  0  0  0  0  0  0  0  0  0  0
    1.7510  -49.8240    6.1370 C   0  0  0  0  0  0  0  0  0  0  0  0
   -0.0940  -51.1820    6.2070 C   0  0  0  0  0  0  0  0  0  0  0  0
   -1.0050  -52.2420    6.3570 C   0  0  0  0  0  0  0  0  0  0  0  0
   -2.3550  -51.9440    6.2430 C   0  0  0  0  0  0  0  0  0  0  0  0
   -2.8000  -50.6290    5.9670 C   0  0  0  0  0  0  0  0  0  0  0  0
   -1.9050  -49.5790    5.8130 C   0  0  0  0  0  0  0  0  0  0  0  0
   -0.5310  -49.8340    5.9410 C   0  0  0  0  0  0  0  0  0  0  0  0
    0.6540  -49.0020    5.9100 C   0  0  0  0  0  0  0  0  0  0  0  0
    0.5940  -47.5230    5.7700 C   0  0  0  0  0  0  0  0  0  0  0  0
    0.1980  -46.9180    7.1330 C   0  0  0  0  0  0  0  0  0  0  0  0
   -0.3720  -45.5130    7.0370 C   0  0  0  0  0  0  0  0  0  0  0  0
   -1.5450  -45.4990    6.1530 O   0  0  0  0  0  0  0  0  0  0  0  0
   -2.7850  -45.4280    6.7130 C   0  0  0  0  0  0  0  0  0  0  0  0
   -4.9990  -44.5080    6.3370 C   0  0  0  0  0  0  0  0  0  0  0  0
   -3.7290  -44.7210    5.8860 C   0  0  0  0  0  0  0  0  0  0  0  0
   -0.6710  -53.2570    6.5680 H   0  0  0  0  0  0  0  0  0  0  0  0
   -3.1000  -52.7310    6.3750 H   0  0  0  0  0  0  0  0  0  0  0  0
   -3.8720  -50.4470    5.8810 H   0  0  0  0  0  0  0  0  0  0  0  0
   -2.2710  -48.5730    5.6050 H   0  0  0  0  0  0  0  0  0  0  0  0
   -0.1940  -47.2460    5.0220 H   0  0  0  0  0  0  0  0  0  0  0  0
    1.5650  -47.0940    5.4310 H   0  0  0  0  0  0  0  0  0  0  0  0
    1.0920  -46.8860    7.7980 H   0  0  0  0  0  0  0  0  0  0  0  0
   -0.5780  -47.5760    7.6000 H   0  0  0  0  0  0  0  0  0  0  0  0
    0.2870  -44.8100    6.4800 H   0  0  0  0  0  0  0  0  0  0  0  0
   -0.6620  -45.1060    8.0300 H   0  0  0  0  0  0  0  0  0  0  0  0
   -3.4050  -44.3540    4.9130 H   0  0  0  0  0  0  0  0  0  0  0  0
   -3.1410  -45.9640    7.9320 C   0  0  0  0  0  0  0  0  0  0  0  0
   -5.7320  -43.9570    5.7380 H   0  0  0  0  0  0  0  0  0  0  0  0
   -4.4690  -45.7750    8.4010 C   0  0  0  0  0  0  0  0  0  0  0  0
   -5.3980  -45.0220    7.6220 C   0  0  0  0  0  0  0  0  0  0  0  0
   -6.6930  -44.7800    8.0510 N   0  0  0  0  0  0  0  0  0  0  0  0
   -7.0660  -45.2840    9.2250 C   0  0  0  0  0  0  0  0  0  0  0  0
   -6.1990  -46.0560   10.0640 C   0  0  0  0  0  0  0  0  0  0  0  0
   -4.9170  -46.3060    9.6510 C   0  0  0  0  0  0  0  0  0  0  0  0
   -8.0960  -45.1080    9.5460 H   0  0  0  0  0  0  0  0  0  0  0  0
   -6.5860  -46.4410   11.0030 H   0  0  0  0  0  0  0  0  0  0  0  0
   -4.2340  -46.9090   10.2550 H   0  0  0  0  0  0  0  0  0  0  0  0
   -2.4490  -46.5400    8.5430 H   0  0  0  0  0  0  0  0  0  0  0  0
    1.3060  -51.1510    6.3100 N   0  0  0  0  0  0  0  0  0  0  0  0
    1.8710  -51.9760    6.4810 H   0  0  0  0  0  0  0  0  0  0  0  0
  1  2  2  0  0  0  0
  2  3  1  0  0  0  0
  2  4  1  0  0  0  0
  4 11  2  0  0  0  0
  4 42  1  0  0  0  0
  5  6  2  0  0  0  0
  5 10  1  0  0  0  0
  5 42  1  0  0  0  0
  6  7  1  0  0  0  0
  6 19  1  0  0  0  0
  7  8  2  0  0  0  0
  7 20  1  0  0  0  0
  8  9  1  0  0  0  0
  8 21  1  0  0  0  0
  9 10  2  0  0  0  0
  9 22  1  0  0  0  0
 10 11  1  0  0  0  0
 11 12  1  0  0  0  0
 12 23  1  0  0  0  0
 12 24  1  0  0  0  0
 12 13  1  0  0  0  0
 13 14  1  0  0  0  0
 13 25  1  0  0  0  0
 13 26  1  0  0  0  0
 14 15  1  0  0  0  0
 14 27  1  0  0  0  0
 14 28  1  0  0  0  0
 15 16  1  0  0  0  0
 16 18  2  0  0  0  0
 16 30  1  0  0  0  0
 17 18  1  0  0  0  0
 17 31  1  0  0  0  0
 17 33  2  0  0  0  0
 18 29  1  0  0  0  0
 30 32  2  0  0  0  0
 30 41  1  0  0  0  0
 32 33  1  0  0  0  0
 32 37  1  0  0  0  0
 33 34  1  0  0  0  0
 34 35  2  0  0  0  0
 35 36  1  0  0  0  0
 35 38  1  0  0  0  0
 36 37  2  0  0  0  0
 36 39  1  0  0  0  0
 37 40  1  0  0  0  0
 42 43  1  0  0  0  0
M  CHG  1   3  -1
M  END
$$$$
