44
 OpenBabel02232411163D
Structure written by MMmdl.
 44 47  0  0  0  0  0  0  0  0999 V2000
    3.5480  -48.5500    7.0470 O   0  0  0  0  0  0  0  0  0  0  0  0
    3.1780  -49.4900    6.3290 C   0  0  0  0  0  0  0  0  0  0  0  0
    3.9090  -50.2600    5.6760 O   0  5  0  0  0  0  0  0  0  0  0  0
    1.6690  -49.7900    6.2370 C   0  0  0  0  0  0  0  0  0  0  0  0
   -0.1790  -51.1450    6.2920 C   0  0  0  0  0  0  0  0  0  0  0  0
   -1.0950  -52.2020    6.4390 C   0  0  0  0  0  0  0  0  0  0  0  0
   -2.4420  -51.9070    6.2830 C   0  0  0  0  0  0  0  0  0  0  0  0
   -2.8790  -50.5970    5.9740 C   0  0  0  0  0  0  0  0  0  0  0  0
   -1.9800  -49.5490    5.8260 C   0  0  0  0  0  0  0  0  0  0  0  0
   -0.6090  -49.8030    5.9910 C   0  0  0  0  0  0  0  0  0  0  0  0
    0.5770  -48.9720    5.9730 C   0  0  0  0  0  0  0  0  0  0  0  0
    0.5100  -47.4930    5.8260 C   0  0  0  0  0  0  0  0  0  0  0  0
    0.0940  -46.8970    7.1880 C   0  0  0  0  0  0  0  0  0  0  0  0
   -0.6520  -45.5770    7.0950 C   0  0  0  0  0  0  0  0  0  0  0  0
   -1.9840  -45.7570    6.4920 O   0  0  0  0  0  0  0  0  0  0  0  0
   -3.0530  -45.8270    7.3460 C   0  0  0  0  0  0  0  0  0  0  0  0
   -5.3010  -45.6860    8.9780 C   0  0  0  0  0  0  0  0  0  0  0  0
   -4.2390  -46.4700    9.3530 C   0  0  0  0  0  0  0  0  0  0  0  0
   -3.0900  -46.5430    8.5240 C   0  0  0  0  0  0  0  0  0  0  0  0
   -0.7660  -53.2130    6.6770 H   0  0  0  0  0  0  0  0  0  0  0  0
   -3.1890  -52.6920    6.4060 H   0  0  0  0  0  0  0  0  0  0  0  0
   -3.9480  -50.4170    5.8540 H   0  0  0  0  0  0  0  0  0  0  0  0
   -2.3400  -48.5450    5.5960 H   0  0  0  0  0  0  0  0  0  0  0  0
   -0.2700  -47.2300    5.0650 H   0  0  0  0  0  0  0  0  0  0  0  0
    1.4820  -47.0590    5.4990 H   0  0  0  0  0  0  0  0  0  0  0  0
   -0.5750  -47.6330    7.6980 H   0  0  0  0  0  0  0  0  0  0  0  0
    1.0030  -46.7450    7.8160 H   0  0  0  0  0  0  0  0  0  0  0  0
   -0.2050  -44.8820    6.3510 H   0  0  0  0  0  0  0  0  0  0  0  0
   -0.7850  -45.0960    8.0880 H   0  0  0  0  0  0  0  0  0  0  0  0
   -2.2720  -47.1830    8.8400 H   0  0  0  0  0  0  0  0  0  0  0  0
   -5.3540  -45.0200    7.7130 C   0  0  0  0  0  0  0  0  0  0  0  0
   -4.2040  -45.0870    6.8830 C   0  0  0  0  0  0  0  0  0  0  0  0
   -4.2140  -44.4490    5.6090 C   0  0  0  0  0  0  0  0  0  0  0  0
   -5.3310  -43.7790    5.1750 C   0  0  0  0  0  0  0  0  0  0  0  0
   -6.4890  -43.7280    5.9970 C   0  0  0  0  0  0  0  0  0  0  0  0
   -6.5030  -44.3230    7.2370 C   0  0  0  0  0  0  0  0  0  0  0  0
   -3.3250  -44.5290    4.9800 H   0  0  0  0  0  0  0  0  0  0  0  0
   -5.3430  -43.2900    4.2030 H   0  0  0  0  0  0  0  0  0  0  0  0
   -7.3700  -43.2070    5.6280 H   0  0  0  0  0  0  0  0  0  0  0  0
   -7.4040  -44.2760    7.8520 H   0  0  0  0  0  0  0  0  0  0  0  0
   -4.2490  -47.0300   10.2910 H   0  0  0  0  0  0  0  0  0  0  0  0
   -6.6090  -45.4630   10.0850 Cl  0  0  0  0  0  0  0  0  0  0  0  0
    1.2180  -51.1130    6.4280 N   0  0  0  0  0  0  0  0  0  0  0  0
    1.7790  -51.9350    6.6200 H   0  0  0  0  0  0  0  0  0  0  0  0
  1  2  2  0  0  0  0
  2  3  1  0  0  0  0
  2  4  1  0  0  0  0
  4 11  2  0  0  0  0
  4 43  1  0  0  0  0
  5  6  2  0  0  0  0
  5 10  1  0  0  0  0
  5 43  1  0  0  0  0
  6  7  1  0  0  0  0
  6 20  1  0  0  0  0
  7  8  2  0  0  0  0
  7 21  1  0  0  0  0
  8  9  1  0  0  0  0
  8 22  1  0  0  0  0
  9 10  2  0  0  0  0
  9 23  1  0  0  0  0
 10 11  1  0  0  0  0
 11 12  1  0  0  0  0
 12 24  1  0  0  0  0
 12 25  1  0  0  0  0
 12 13  1  0  0  0  0
 13 14  1  0  0  0  0
 13 26  1  0  0  0  0
 13 27  1  0  0  0  0
 14 15  1  0  0  0  0
 14 28  1  0  0  0  0
 14 29  1  0  0  0  0
 15 16  1  0  0  0  0
 16 19  2  0  0  0  0
 16 32  1  0  0  0  0
 17 18  2  0  0  0  0
 17 31  1  0  0  0  0
 17 42  1  0  0  0  0
 18 19  1  0  0  0  0
 18 41  1  0  0  0  0
 19 30  1  0  0  0  0
 31 32  2  0  0  0  0
 31 36  1  0  0  0  0
 32 33  1  0  0  0  0
 33 34  2  0  0  0  0
 33 37  1  0  0  0  0
 34 35  1  0  0  0  0
 34 38  1  0  0  0  0
 35 36  2  0  0  0  0
 35 39  1  0  0  0  0
 36 40  1  0  0  0  0
 43 44  1  0  0  0  0
M  CHG  1   3  -1
M  END
$$$$
