1oiy
 OpenBabel02232411153D
Structure written by MMmdl.
 49 52  0  0  0  0  0  0  0  0999 V2000
    1.7620   28.9370    6.8410 C   0  0  0  0  0  0  0  0  0  0  0  0
   -1.6920   31.5540    8.0220 C   0  0  0  0  0  0  0  0  0  0  0  0
   -0.2500   26.0420    8.8710 C   0  0  0  0  0  0  0  0  0  0  0  0
   -0.9730   25.3410   10.0270 C   0  0  0  0  0  0  0  0  0  0  0  0
   -0.7820   23.8200    9.8290 C   0  0  0  0  0  0  0  0  0  0  0  0
   -1.3630   23.0250   11.0060 C   0  0  0  0  0  0  0  0  0  0  0  0
   -0.7800   23.4980   12.3470 C   0  0  0  0  0  0  0  0  0  0  0  0
   -1.0100   25.0040   12.5480 C   0  0  0  0  0  0  0  0  0  0  0  0
   -0.4150   25.8110   11.3850 C   0  0  0  0  0  0  0  0  0  0  0  0
    5.2270   25.6090    5.9290 C   0  0  0  0  0  0  0  0  0  0  0  0
    4.9170   24.8340    7.0620 C   0  0  0  0  0  0  0  0  0  0  0  0
    4.0630   25.3660    8.0400 C   0  0  0  0  0  0  0  0  0  0  0  0
    3.4670   26.6110    7.8640 C   0  0  0  0  0  0  0  0  0  0  0  0
    1.0190   27.9760    7.5200 N   0  0  0  0  0  0  0  0  0  0  0  0
   -0.1680   28.3090    8.0850 C   0  0  0  0  0  0  0  0  0  0  0  0
   -0.8530   27.4000    8.7940 O   0  0  0  0  0  0  0  0  0  0  0  0
   -0.6720   29.6290    7.9390 C   0  0  0  0  0  0  0  0  0  0  0  0
   -1.8090   30.2850    8.4210 N   0  0  0  0  0  0  0  0  0  0  0  0
   -0.4820   31.7810    7.2760 N   0  0  0  0  0  0  0  0  0  0  0  0
    0.1700   30.5550    7.1990 C   0  0  0  0  0  0  0  0  0  0  0  0
    1.3710   30.2420    6.6070 N   0  0  0  0  0  0  0  0  0  0  0  0
    3.0070   28.5410    6.3560 N   0  0  0  0  0  0  0  0  0  0  0  0
    3.6770   27.3200    6.6690 C   0  0  0  0  0  0  0  0  0  0  0  0
    4.6140   26.8410    5.7260 C   0  0  0  0  0  0  0  0  0  0  0  0
   -2.3840   32.3640    8.2330 H   0  0  0  0  0  0  0  0  0  0  0  0
    0.8400   26.1300    9.0780 H   0  0  0  0  0  0  0  0  0  0  0  0
   -0.4520   25.5700    7.8890 H   0  0  0  0  0  0  0  0  0  0  0  0
   -2.0640   25.5770   10.0000 H   0  0  0  0  0  0  0  0  0  0  0  0
   -1.2880   23.5010    8.8910 H   0  0  0  0  0  0  0  0  0  0  0  0
    0.3090   23.5910    9.7480 H   0  0  0  0  0  0  0  0  0  0  0  0
   -2.4660   23.1590   11.0300 H   0  0  0  0  0  0  0  0  0  0  0  0
   -1.1350   21.9410   10.8720 H   0  0  0  0  0  0  0  0  0  0  0  0
   -1.2580   22.9340   13.1790 H   0  0  0  0  0  0  0  0  0  0  0  0
    0.3160   23.2930   12.3570 H   0  0  0  0  0  0  0  0  0  0  0  0
   -2.1020   25.2050   12.6350 H   0  0  0  0  0  0  0  0  0  0  0  0
   -0.5200   25.3240   13.4970 H   0  0  0  0  0  0  0  0  0  0  0  0
    0.6950   25.6830   11.4030 H   0  0  0  0  0  0  0  0  0  0  0  0
   -0.6460   26.8900   11.5290 H   0  0  0  0  0  0  0  0  0  0  0  0
    5.9440   25.2430    5.1850 H   0  0  0  0  0  0  0  0  0  0  0  0
    3.8270   24.8080    8.9520 H   0  0  0  0  0  0  0  0  0  0  0  0
    2.8260   27.0020    8.6550 H   0  0  0  0  0  0  0  0  0  0  0  0
   -0.2040   32.6610    6.8160 H   0  0  0  0  0  0  0  0  0  0  0  0
    3.5320   29.1840    5.7200 H   0  0  0  0  0  0  0  0  0  0  0  0
    4.8470   27.4240    4.8320 H   0  0  0  0  0  0  0  0  0  0  0  0
    5.8880   22.8470    6.1570 O   0  0  0  0  0  0  0  0  0  0  0  0
    5.4250   23.4370    7.1320 C   0  0  0  0  0  0  0  0  0  0  0  0
    5.2840   22.7390    8.3310 N   0  0  0  0  0  0  0  0  0  0  0  0
    5.1370   23.2150    9.2530 H   0  0  0  0  0  0  0  0  0  0  0  0
    5.5870   21.7690    8.4030 H   0  0  0  0  0  0  0  0  0  0  0  0
  1 14  2  0  0  0  0
  1 21  1  0  0  0  0
  1 22  1  0  0  0  0
  2 18  2  0  0  0  0
  2 19  1  0  0  0  0
  2 25  1  0  0  0  0
  3  4  1  0  0  0  0
  3 16  1  0  0  0  0
  3 26  1  0  0  0  0
  3 27  1  0  0  0  0
  4  5  1  0  0  0  0
  4  9  1  0  0  0  0
  4 28  1  0  0  0  0
  5  6  1  0  0  0  0
  5 29  1  0  0  0  0
  5 30  1  0  0  0  0
  6  7  1  0  0  0  0
  6 31  1  0  0  0  0
  6 32  1  0  0  0  0
  7  8  1  0  0  0  0
  7 33  1  0  0  0  0
  7 34  1  0  0  0  0
  8  9  1  0  0  0  0
  8 35  1  0  0  0  0
  8 36  1  0  0  0  0
  9 37  1  0  0  0  0
  9 38  1  0  0  0  0
 10 11  2  0  0  0  0
 10 24  1  0  0  0  0
 10 39  1  0  0  0  0
 11 12  1  0  0  0  0
 11 46  1  0  0  0  0
 12 13  2  0  0  0  0
 12 40  1  0  0  0  0
 13 23  1  0  0  0  0
 13 41  1  0  0  0  0
 14 15  1  0  0  0  0
 15 16  1  0  0  0  0
 15 17  2  0  0  0  0
 17 18  1  0  0  0  0
 17 20  1  0  0  0  0
 19 20  1  0  0  0  0
 19 42  1  0  0  0  0
 20 21  2  0  0  0  0
 22 23  1  0  0  0  0
 22 43  1  0  0  0  0
 23 24  2  0  0  0  0
 24 44  1  0  0  0  0
 45 46  2  0  0  0  0
 46 47  1  0  0  0  0
 47 48  1  0  0  0  0
 47 49  1  0  0  0  0
M  END
$$$$
