p38a_2y
 OpenBabel02232411163D
Structure written by MMmdl.
 45 47  0  0  0  0  0  0  0  0999 V2000
   36.3620   36.0600   15.7630 C   0  0  0  0  0  0  0  0  0  0  0  0
   34.6220   34.9960   21.3520 C   0  0  0  0  0  0  0  0  0  0  0  0
   35.6590   35.5890   16.8660 C   0  0  0  0  0  0  0  0  0  0  0  0
   34.4740   39.0270   24.0150 C   0  0  0  0  0  0  0  0  0  0  0  0
   34.3380   38.8710   26.5060 C   0  0  0  0  0  0  0  0  0  0  0  0
   34.8370   37.8560   21.5490 C   0  0  0  0  0  0  0  0  0  0  0  0
   35.1660   37.2110   20.3060 C   0  0  0  0  0  0  0  0  0  0  0  0
   37.6550   36.5420   16.0050 C   0  0  0  0  0  0  0  0  0  0  0  0
   38.2570   36.5310   17.2660 C   0  0  0  0  0  0  0  0  0  0  0  0
   37.5150   36.0890   18.3670 C   0  0  0  0  0  0  0  0  0  0  0  0
   34.5780   37.0710   22.7130 C   0  0  0  0  0  0  0  0  0  0  0  0
   34.7750   39.2680   21.7010 C   0  0  0  0  0  0  0  0  0  0  0  0
   35.1080   35.8610   20.2430 C   0  0  0  0  0  0  0  0  0  0  0  0
   36.2130   35.6220   18.1630 C   0  0  0  0  0  0  0  0  0  0  0  0
   34.2130   34.8740   23.8410 C   0  0  0  0  0  0  0  0  0  0  0  0
   34.4410   35.0830   16.7240 F   0  0  0  0  0  0  0  0  0  0  0  0
   35.4200   35.0420   19.1590 O   0  0  0  0  0  0  0  0  0  0  0  0
   34.5750   39.8650   22.8860 N   0  0  0  0  0  0  0  0  0  0  0  0
   34.3540   33.8180   21.2600 O   0  0  0  0  0  0  0  0  0  0  0  0
   34.4740   35.6750   22.6120 N   0  0  0  0  0  0  0  0  0  0  0  0
   34.4060   37.6500   23.9450 N   0  0  0  0  0  0  0  0  0  0  0  0
   34.5250   39.6410   25.2510 N   0  0  0  0  0  0  0  0  0  0  0  0
   35.9220   36.0780   14.7640 H   0  0  0  0  0  0  0  0  0  0  0  0
   35.3560   38.7530   26.9750 H   0  0  0  0  0  0  0  0  0  0  0  0
   35.4740   37.8370   19.4650 H   0  0  0  0  0  0  0  0  0  0  0  0
   39.2810   36.8930   17.4000 H   0  0  0  0  0  0  0  0  0  0  0  0
   37.9510   36.1370   19.3670 H   0  0  0  0  0  0  0  0  0  0  0  0
   34.8850   39.9220   20.8190 H   0  0  0  0  0  0  0  0  0  0  0  0
   34.9800   35.1150   24.6270 H   0  0  0  0  0  0  0  0  0  0  0  0
   33.1960   35.1150   24.2520 H   0  0  0  0  0  0  0  0  0  0  0  0
   34.2660   33.7780   23.6090 H   0  0  0  0  0  0  0  0  0  0  0  0
   34.3040   40.6540   25.3050 H   0  0  0  0  0  0  0  0  0  0  0  0
   38.3250   37.0700   14.9820 F   0  0  0  0  0  0  0  0  0  0  0  0
   33.3920   39.5870   27.5270 C   0  0  0  0  0  0  0  0  0  0  0  0
   33.9370   37.8420   26.2930 H   0  0  0  0  0  0  0  0  0  0  0  0
   34.1370   40.7090   28.2610 C   0  0  0  0  0  0  0  0  0  0  0  0
   32.2500   40.1180   26.8190 O   0  0  0  0  0  0  0  0  0  0  0  0
   32.7980   38.5630   28.4970 C   0  0  0  0  0  0  0  0  0  0  0  0
   32.5230   40.9690   26.3670 H   0  0  0  0  0  0  0  0  0  0  0  0
   33.4440   41.2770   28.9200 H   0  0  0  0  0  0  0  0  0  0  0  0
   34.9430   40.2800   28.9040 H   0  0  0  0  0  0  0  0  0  0  0  0
   34.6130   41.4190   27.5490 H   0  0  0  0  0  0  0  0  0  0  0  0
   32.2300   39.0760   29.3080 H   0  0  0  0  0  0  0  0  0  0  0  0
   32.1050   37.8680   27.9690 H   0  0  0  0  0  0  0  0  0  0  0  0
   33.6130   37.9630   28.9700 H   0  0  0  0  0  0  0  0  0  0  0  0
  1  3  2  0  0  0  0
  1  8  1  0  0  0  0
  1 23  1  0  0  0  0
  2 13  1  0  0  0  0
  2 19  2  0  0  0  0
  2 20  1  0  0  0  0
  3 14  1  0  0  0  0
  3 16  1  0  0  0  0
  4 18  2  0  0  0  0
  4 21  1  0  0  0  0
  4 22  1  0  0  0  0
  5 22  1  0  0  0  0
  5 24  1  0  0  0  0
  5 34  1  0  0  0  0
  5 35  1  0  0  0  0
  6  7  1  0  0  0  0
  6 11  1  0  0  0  0
  6 12  2  0  0  0  0
  7 13  2  0  0  0  0
  7 25  1  0  0  0  0
  8  9  2  0  0  0  0
  8 33  1  0  0  0  0
  9 10  1  0  0  0  0
  9 26  1  0  0  0  0
 10 14  2  0  0  0  0
 10 27  1  0  0  0  0
 11 20  1  0  0  0  0
 11 21  2  0  0  0  0
 12 18  1  0  0  0  0
 12 28  1  0  0  0  0
 13 17  1  0  0  0  0
 14 17  1  0  0  0  0
 15 20  1  0  0  0  0
 15 29  1  0  0  0  0
 15 30  1  0  0  0  0
 15 31  1  0  0  0  0
 22 32  1  0  0  0  0
 34 36  1  0  0  0  0
 34 37  1  0  0  0  0
 34 38  1  0  0  0  0
 36 40  1  0  0  0  0
 36 41  1  0  0  0  0
 36 42  1  0  0  0  0
 37 39  1  0  0  0  0
 38 43  1  0  0  0  0
 38 44  1  0  0  0  0
 38 45  1  0  0  0  0
M  END
$$$$
