p38a_3fmk
 OpenBabel02232411163D
Structure written by MMmdl.
 46 49  0  0  1  0  0  0  0  0999 V2000
   37.5260   36.0840   18.2620 C   0  0  0  0  0  0  0  0  0  0  0  0
   38.2920   36.5320   17.1890 C   0  0  0  0  0  0  0  0  0  0  0  0
   33.3980   35.1200   23.5530 C   0  0  0  0  0  0  0  0  0  0  0  0
   36.2780   36.3540   15.7780 C   0  0  0  0  0  0  0  0  0  0  0  0
   34.6340   39.4180   21.5180 C   0  0  0  0  0  0  0  0  0  0  0  0
   32.5150   39.3890   25.9140 C   0  0  1  0  0  0  0  0  0  0  0  0
   33.2390   38.3010   26.7580 C   0  0  0  0  0  0  0  0  0  0  0  0
   33.7460   39.2550   23.6850 C   0  0  0  0  0  0  0  0  0  0  0  0
   34.4460   35.1280   21.2540 C   0  0  0  0  0  0  0  0  0  0  0  0
   35.0260   35.9710   20.1740 C   0  0  0  0  0  0  0  0  0  0  0  0
   35.0760   37.3220   20.2080 C   0  0  0  0  0  0  0  0  0  0  0  0
   36.1640   35.7490   18.1090 C   0  0  0  0  0  0  0  0  0  0  0  0
   35.5340   35.8940   16.8700 C   0  0  0  0  0  0  0  0  0  0  0  0
   34.6020   38.0030   21.3810 C   0  0  0  0  0  0  0  0  0  0  0  0
   34.0810   37.2620   22.4810 C   0  0  0  0  0  0  0  0  0  0  0  0
   33.3870   39.9280   24.8350 N   0  0  0  0  0  0  0  0  0  0  0  0
   37.6270   36.6690   15.9630 C   0  0  0  0  0  0  0  0  0  0  0  0
   38.3080   37.1620   14.9310 F   0  0  0  0  0  0  0  0  0  0  0  0
   38.0740   35.9690   19.4640 F   0  0  0  0  0  0  0  0  0  0  0  0
   35.4700   35.1290   19.1570 O   0  0  0  0  0  0  0  0  0  0  0  0
   34.3380   33.9210   21.2240 O   0  0  0  0  0  0  0  0  0  0  0  0
   33.9940   35.8610   22.4070 N   0  0  0  0  0  0  0  0  0  0  0  0
   33.6560   37.8810   23.6330 N   0  0  0  0  0  0  0  0  0  0  0  0
   34.2370   40.0520   22.6300 N   0  0  0  0  0  0  0  0  0  0  0  0
   31.1890   38.8340   25.3850 C   0  0  0  0  0  0  0  0  0  0  0  0
   34.2830   38.8930   27.6230 N   0  0  0  0  0  0  0  0  0  0  0  0
   34.0200   39.3470   28.8830 N   0  0  0  0  0  0  0  0  0  0  0  0
   35.2060   39.8640   29.3090 C   0  0  0  0  0  0  0  0  0  0  0  0
   36.1710   39.7100   28.2790 N   0  0  0  0  0  0  0  0  0  0  0  0
   35.5900   39.1270   27.2780 N   0  0  0  0  0  0  0  0  0  0  0  0
   39.3450   36.8010   17.3060 H   0  0  0  0  0  0  0  0  0  0  0  0
   34.0130   35.2820   24.4790 H   0  0  0  0  0  0  0  0  0  0  0  0
   32.3570   35.4940   23.7510 H   0  0  0  0  0  0  0  0  0  0  0  0
   33.3540   34.0230   23.3280 H   0  0  0  0  0  0  0  0  0  0  0  0
   35.7950   36.4780   14.8060 H   0  0  0  0  0  0  0  0  0  0  0  0
   34.9850   40.0370   20.6780 H   0  0  0  0  0  0  0  0  0  0  0  0
   32.2890   40.2730   26.5820 H   0  0  0  0  0  0  0  0  0  0  0  0
   32.4740   37.7850   27.4120 H   0  0  0  0  0  0  0  0  0  0  0  0
   33.7040   37.5200   26.0890 H   0  0  0  0  0  0  0  0  0  0  0  0
   35.4680   37.9240   19.3850 H   0  0  0  0  0  0  0  0  0  0  0  0
   34.4700   35.6670   16.7470 H   0  0  0  0  0  0  0  0  0  0  0  0
   33.4810   40.9630   24.8540 H   0  0  0  0  0  0  0  0  0  0  0  0
   30.6870   39.5820   24.7330 H   0  0  0  0  0  0  0  0  0  0  0  0
   31.3380   37.8900   24.8100 H   0  0  0  0  0  0  0  0  0  0  0  0
   30.5130   38.6110   26.2440 H   0  0  0  0  0  0  0  0  0  0  0  0
   35.4000   40.3230   30.2780 H   0  0  0  0  0  0  0  0  0  0  0  0
  1  2  2  0  0  0  0
  1 12  1  0  0  0  0
  1 19  1  0  0  0  0
  2 17  1  0  0  0  0
  2 31  1  0  0  0  0
  3 22  1  0  0  0  0
  3 32  1  0  0  0  0
  3 33  1  0  0  0  0
  3 34  1  0  0  0  0
  4 13  1  0  0  0  0
  4 17  2  0  0  0  0
  4 35  1  0  0  0  0
  5 14  2  0  0  0  0
  5 24  1  0  0  0  0
  5 36  1  0  0  0  0
  6  7  1  0  0  0  0
  6 16  1  0  0  0  0
  6 25  1  0  0  0  0
  6 37  1  6  0  0  0
  7 26  1  0  0  0  0
  7 38  1  0  0  0  0
  7 39  1  0  0  0  0
  8 16  1  0  0  0  0
  8 23  1  0  0  0  0
  8 24  2  0  0  0  0
  9 10  1  0  0  0  0
  9 21  2  0  0  0  0
  9 22  1  0  0  0  0
 10 11  2  0  0  0  0
 10 20  1  0  0  0  0
 11 14  1  0  0  0  0
 11 40  1  0  0  0  0
 12 13  2  0  0  0  0
 12 20  1  0  0  0  0
 13 41  1  0  0  0  0
 14 15  1  0  0  0  0
 15 22  1  0  0  0  0
 15 23  2  0  0  0  0
 16 42  1  0  0  0  0
 17 18  1  0  0  0  0
 25 43  1  0  0  0  0
 25 44  1  0  0  0  0
 25 45  1  0  0  0  0
 26 27  1  0  0  0  0
 26 30  1  0  0  0  0
 27 28  2  0  0  0  0
 28 29  1  0  0  0  0
 28 46  1  0  0  0  0
 29 30  2  0  0  0  0
M  END
$$$$
