18628-1
 OpenBabel02232411163D
Structure written by MMmdl.
 41 42  0  0  0  0  0  0  0  0999 V2000
   23.2220   10.8160   29.0900 C   0  0  0  0  0  0  0  0  0  0  0  0
   23.4700   11.0640   30.5630 C   0  0  0  0  0  0  0  0  0  0  0  0
   22.1930   11.1420   31.3020 O   0  0  0  0  0  0  0  0  0  0  0  0
   21.5490   10.0040   31.6430 C   0  0  0  0  0  0  0  0  0  0  0  0
   22.0340    8.8100   31.2340 N   0  0  0  0  0  0  0  0  0  0  0  0
   21.3020    7.6750   31.5480 C   0  0  0  0  0  0  0  0  0  0  0  0
   20.1310    7.7190   32.2970 C   0  0  0  0  0  0  0  0  0  0  0  0
   19.6410    8.9760   32.7450 C   0  0  0  0  0  0  0  0  0  0  0  0
   18.4800    9.0300   33.4730 N   0  0  0  0  0  0  0  0  0  0  0  0
   20.3570   10.1700   32.4100 C   0  0  0  0  0  0  0  0  0  0  0  0
   19.9440   11.4730   32.7600 C   0  0  0  0  0  0  0  0  0  0  0  0
   19.6570   12.5690   33.0070 N   0  0  0  0  0  0  0  0  0  0  0  0
   21.8930    6.5160   30.9920 N   0  0  0  0  0  0  0  0  0  0  0  0
   21.3130    5.2280   30.8780 C   0  0  0  0  0  0  0  0  0  0  0  0
   20.2560    4.9450   31.4000 O   0  0  0  0  0  0  0  0  0  0  0  0
   22.1100    4.2820   29.9910 C   0  0  0  0  0  0  0  0  0  0  0  0
   23.4130    3.8690   30.6230 C   0  0  0  0  0  0  0  0  0  0  0  0
   24.6410    4.5070   30.3610 C   0  0  0  0  0  0  0  0  0  0  0  0
   24.8360    5.6090   29.3670 C   0  0  0  0  0  0  0  0  0  0  0  0
   25.7890    4.0860   31.0640 C   0  0  0  0  0  0  0  0  0  0  0  0
   25.7330    3.0440   31.9850 C   0  0  0  0  0  0  0  0  0  0  0  0
   24.5210    2.3800   32.2060 C   0  0  0  0  0  0  0  0  0  0  0  0
   23.3770    2.7880   31.5240 C   0  0  0  0  0  0  0  0  0  0  0  0
   24.1790   10.9550   28.5280 H   0  0  0  0  0  0  0  0  0  0  0  0
   22.8660    9.7740   28.9090 H   0  0  0  0  0  0  0  0  0  0  0  0
   22.4730   11.5280   28.6780 H   0  0  0  0  0  0  0  0  0  0  0  0
   23.8510   12.0960   30.7580 H   0  0  0  0  0  0  0  0  0  0  0  0
   24.1180   10.2820   31.0200 H   0  0  0  0  0  0  0  0  0  0  0  0
   19.5760    6.8100   32.5340 H   0  0  0  0  0  0  0  0  0  0  0  0
   18.0850    9.9200   33.7770 H   0  0  0  0  0  0  0  0  0  0  0  0
   17.9850    8.1640   33.7590 H   0  0  0  0  0  0  0  0  0  0  0  0
   22.8210    6.6780   30.5570 H   0  0  0  0  0  0  0  0  0  0  0  0
   22.2760    4.7730   29.0000 H   0  0  0  0  0  0  0  0  0  0  0  0
   21.4840    3.3680   29.8070 H   0  0  0  0  0  0  0  0  0  0  0  0
   25.1120    6.5590   29.8980 H   0  0  0  0  0  0  0  0  0  0  0  0
   25.6970    5.3570   28.6920 H   0  0  0  0  0  0  0  0  0  0  0  0
   23.9580    5.8070   28.7220 H   0  0  0  0  0  0  0  0  0  0  0  0
   26.7440    4.5890   30.8810 H   0  0  0  0  0  0  0  0  0  0  0  0
   26.6350    2.7390   32.5240 H   0  0  0  0  0  0  0  0  0  0  0  0
   24.4760    1.5430   32.9090 H   0  0  0  0  0  0  0  0  0  0  0  0
   22.4430    2.2470   31.6930 H   0  0  0  0  0  0  0  0  0  0  0  0
  1  2  1  0  0  0  0
  1 24  1  0  0  0  0
  1 25  1  0  0  0  0
  1 26  1  0  0  0  0
  2  3  1  0  0  0  0
  2 27  1  0  0  0  0
  2 28  1  0  0  0  0
  3  4  1  0  0  0  0
  4 10  2  0  0  0  0
  4  5  1  0  0  0  0
  5  6  2  0  0  0  0
  6  7  1  0  0  0  0
  6 13  1  0  0  0  0
  7  8  2  0  0  0  0
  7 29  1  0  0  0  0
  8  9  1  0  0  0  0
  8 10  1  0  0  0  0
  9 30  1  0  0  0  0
  9 31  1  0  0  0  0
 10 11  1  0  0  0  0
 11 12  3  0  0  0  0
 13 14  1  0  0  0  0
 13 32  1  0  0  0  0
 14 15  2  0  0  0  0
 14 16  1  0  0  0  0
 16 17  1  0  0  0  0
 16 33  1  0  0  0  0
 16 34  1  0  0  0  0
 17 23  2  0  0  0  0
 17 18  1  0  0  0  0
 18 19  1  0  0  0  0
 18 20  2  0  0  0  0
 19 35  1  0  0  0  0
 19 36  1  0  0  0  0
 19 37  1  0  0  0  0
 20 21  1  0  0  0  0
 20 38  1  0  0  0  0
 21 22  2  0  0  0  0
 21 39  1  0  0  0  0
 22 23  1  0  0  0  0
 22 40  1  0  0  0  0
 23 41  1  0  0  0  0
M  END
$$$$
