ejm_49
                    3D
 Schrodinger Suite 2022-3.
 39 41  0  0  1  0  0  0  0  0999 V2000
   -3.2180   22.5290  -29.5750 C   0  0  0  0  0  0  0  0  0  0  0  0
   -3.6800   21.4720  -28.7760 C   0  0  0  0  0  0  0  0  0  0  0  0
   -2.8650   20.8600  -27.8230 C   0  0  0  0  0  0  0  0  0  0  0  0
   -5.2810   25.1500  -31.4140 C   0  0  0  0  0  0  0  0  0  0  0  0
   -4.0960   23.0340  -30.6830 C   0  0  0  0  0  0  0  0  0  0  0  0
   -5.9030   24.6370  -32.5650 C   0  0  0  0  0  0  0  0  0  0  0  0
   -6.7200   25.4930  -33.3180 C   0  0  0  0  0  0  0  0  0  0  0  0
   -1.9230   23.0060  -29.3330 C   0  0  0  0  0  0  0  0  0  0  0  0
   -1.5590   21.3250  -27.6410 C   0  0  0  0  0  0  0  0  0  0  0  0
   -1.0870   22.4100  -28.3860 C   0  0  0  0  0  0  0  0  0  0  0  0
   -5.2940   20.9270  -28.9780 Cl  0  0  0  0  0  0  0  0  0  0  0  0
   -4.4770   22.3240  -31.5880 O   0  0  0  0  0  0  0  0  0  0  0  0
   -4.4480   24.3910  -30.5460 N   0  0  0  0  0  0  0  0  0  0  0  0
   -6.9160   26.8050  -33.0190 N   0  0  0  0  0  0  0  0  0  0  0  0
   -6.2940   27.2920  -31.8940 C   0  0  0  0  0  0  0  0  0  0  0  0
   -5.4910   26.4980  -31.0610 C   0  0  0  0  0  0  0  0  0  0  0  0
   -6.5210   28.6720  -31.5800 N   0  0  0  0  0  0  0  0  0  0  0  0
   -5.5070   29.4630  -30.9930 C   0  0  0  0  0  0  0  0  0  0  0  0
   -4.4040   28.9800  -30.7910 O   0  0  0  0  0  0  0  0  0  0  0  0
   -1.3300   24.3720  -30.1860 Cl  0  0  0  0  0  0  0  0  0  0  0  0
   -3.2260   20.0260  -27.2160 H   0  0  0  0  0  0  0  0  0  0  0  0
   -5.7790   23.5950  -32.8720 H   0  0  0  0  0  0  0  0  0  0  0  0
   -7.2460   25.1150  -34.2110 H   0  0  0  0  0  0  0  0  0  0  0  0
   -0.9040   20.8440  -26.9060 H   0  0  0  0  0  0  0  0  0  0  0  0
   -0.0740   22.7840  -28.2100 H   0  0  0  0  0  0  0  0  0  0  0  0
   -4.0540   24.9040  -29.7350 H   0  0  0  0  0  0  0  0  0  0  0  0
   -5.0240   26.9180  -30.1660 H   0  0  0  0  0  0  0  0  0  0  0  0
   -7.4360   29.0760  -31.8680 H   0  0  0  0  0  0  0  0  0  0  0  0
   -6.1270   33.5310  -29.7810 C   0  0  0  0  0  0  0  0  0  0  0  0
   -6.8130   33.0450  -30.8970 C   0  0  0  0  0  0  0  0  0  0  0  0
   -6.6850   31.7080  -31.2870 C   0  0  0  0  0  0  0  0  0  0  0  0
   -5.8170   30.8650  -30.5860 C   0  0  0  0  0  0  0  0  0  0  0  0
   -5.1210   31.3550  -29.4640 C   0  0  0  0  0  0  0  0  0  0  0  0
   -5.2880   32.6780  -29.0560 C   0  0  0  0  0  0  0  0  0  0  0  0
   -6.2470   34.5750  -29.4760 H   0  0  0  0  0  0  0  0  0  0  0  0
   -7.4500   33.7220  -31.4710 H   0  0  0  0  0  0  0  0  0  0  0  0
   -7.2650   31.3490  -32.1390 H   0  0  0  0  0  0  0  0  0  0  0  0
   -4.4390   30.7040  -28.9040 H   0  0  0  0  0  0  0  0  0  0  0  0
   -4.7590   33.0550  -28.1750 H   0  0  0  0  0  0  0  0  0  0  0  0
  1  2  2  0  0  0  0
  1  5  1  0  0  0  0
  1  8  1  0  0  0  0
  2  3  1  0  0  0  0
  2 11  1  0  0  0  0
  3  9  2  0  0  0  0
  3 21  1  0  0  0  0
  4  6  1  0  0  0  0
  4 13  1  0  0  0  0
  4 16  2  0  0  0  0
  5 12  2  0  0  0  0
  5 13  1  0  0  0  0
  6  7  2  0  0  0  0
  6 22  1  0  0  0  0
  7 14  1  0  0  0  0
  7 23  1  0  0  0  0
  8 10  2  0  0  0  0
  8 20  1  0  0  0  0
  9 10  1  0  0  0  0
  9 24  1  0  0  0  0
 10 25  1  0  0  0  0
 13 26  1  0  0  0  0
 14 15  2  0  0  0  0
 15 16  1  0  0  0  0
 15 17  1  0  0  0  0
 16 27  1  0  0  0  0
 17 18  1  0  0  0  0
 17 28  1  0  0  0  0
 18 19  2  0  0  0  0
 18 32  1  0  0  0  0
 29 30  2  0  0  0  0
 29 34  1  0  0  0  0
 29 35  1  0  0  0  0
 30 31  1  0  0  0  0
 30 36  1  0  0  0  0
 31 32  2  0  0  0  0
 31 37  1  0  0  0  0
 32 33  1  0  0  0  0
 33 34  2  0  0  0  0
 33 38  1  0  0  0  0
 34 39  1  0  0  0  0
M  END
$$$$
