p38a_3flq
 OpenBabel02232411163D
Structure written by MMmdl.
 47 49  0  0  1  0  0  0  0  0999 V2000
   34.5540   39.0880   24.1290 C   0  0  0  0  0  0  0  0  0  0  0  0
   34.8550   37.8910   21.6650 C   0  0  0  0  0  0  0  0  0  0  0  0
   35.1060   37.2380   20.4080 C   0  0  0  0  0  0  0  0  0  0  0  0
   34.6880   37.1160   22.8530 C   0  0  0  0  0  0  0  0  0  0  0  0
   35.0570   35.8870   20.3590 C   0  0  0  0  0  0  0  0  0  0  0  0
   34.4500   39.0040   26.6690 C   0  0  1  0  0  0  0  0  0  0  0  0
   35.4020   39.7320   27.6230 C   0  0  0  0  0  0  0  0  0  0  0  0
   30.9550   38.3890   28.8470 C   0  0  0  0  0  0  0  0  0  0  0  0
   34.6260   35.7170   22.7760 N   0  0  0  0  0  0  0  0  0  0  0  0
   32.9950   39.0400   27.1780 C   0  0  0  0  0  0  0  0  0  0  0  0
   38.3510   36.9430   15.1200 F   0  0  0  0  0  0  0  0  0  0  0  0
   37.6460   36.4440   16.1330 C   0  0  0  0  0  0  0  0  0  0  0  0
   38.2050   36.4690   17.4130 C   0  0  0  0  0  0  0  0  0  0  0  0
   37.4240   36.0650   18.5020 C   0  0  0  0  0  0  0  0  0  0  0  0
   36.3610   35.9560   15.8620 C   0  0  0  0  0  0  0  0  0  0  0  0
   35.6160   35.5270   16.9550 C   0  0  0  0  0  0  0  0  0  0  0  0
   34.4010   35.0200   16.7880 F   0  0  0  0  0  0  0  0  0  0  0  0
   36.1260   35.6010   18.2690 C   0  0  0  0  0  0  0  0  0  0  0  0
   35.2840   35.0700   19.2520 O   0  0  0  0  0  0  0  0  0  0  0  0
   34.6590   35.0310   21.5080 C   0  0  0  0  0  0  0  0  0  0  0  0
   34.3760   33.8560   21.4500 O   0  0  0  0  0  0  0  0  0  0  0  0
   34.7790   39.3010   21.8030 C   0  0  0  0  0  0  0  0  0  0  0  0
   34.6170   39.9100   22.9880 N   0  0  0  0  0  0  0  0  0  0  0  0
   34.5560   37.7070   24.0860 N   0  0  0  0  0  0  0  0  0  0  0  0
   34.4930   34.9180   24.0270 C   0  0  0  0  0  0  0  0  0  0  0  0
   34.5250   39.7220   25.3530 N   0  0  0  0  0  0  0  0  0  0  0  0
   32.5790   37.9080   28.4610 S   0  0  0  0  0  0  0  0  0  0  0  0
   32.5950   36.5140   27.9660 O   0  0  0  0  0  0  0  0  0  0  0  0
   33.4590   38.0470   29.6450 O   0  0  0  0  0  0  0  0  0  0  0  0
   35.3480   37.8610   19.5420 H   0  0  0  0  0  0  0  0  0  0  0  0
   34.7870   37.9410   26.5170 H   0  0  0  0  0  0  0  0  0  0  0  0
   36.4520   39.6340   27.2720 H   0  0  0  0  0  0  0  0  0  0  0  0
   35.1500   40.8190   27.6800 H   0  0  0  0  0  0  0  0  0  0  0  0
   35.3270   39.3050   28.6510 H   0  0  0  0  0  0  0  0  0  0  0  0
   30.4030   37.6070   29.4340 H   0  0  0  0  0  0  0  0  0  0  0  0
   30.9210   39.3130   29.4810 H   0  0  0  0  0  0  0  0  0  0  0  0
   30.3370   38.5850   27.9360 H   0  0  0  0  0  0  0  0  0  0  0  0
   32.7760   40.0920   27.5190 H   0  0  0  0  0  0  0  0  0  0  0  0
   32.3090   38.8610   26.3040 H   0  0  0  0  0  0  0  0  0  0  0  0
   39.2270   36.8290   17.5670 H   0  0  0  0  0  0  0  0  0  0  0  0
   37.8260   36.1400   19.5140 H   0  0  0  0  0  0  0  0  0  0  0  0
   35.9560   35.9430   14.8470 H   0  0  0  0  0  0  0  0  0  0  0  0
   34.8440   39.9490   20.9110 H   0  0  0  0  0  0  0  0  0  0  0  0
   34.5770   33.8250   23.7960 H   0  0  0  0  0  0  0  0  0  0  0  0
   35.3070   35.2070   24.7470 H   0  0  0  0  0  0  0  0  0  0  0  0
   33.5000   35.1230   24.5080 H   0  0  0  0  0  0  0  0  0  0  0  0
   34.2890   40.7330   25.3910 H   0  0  0  0  0  0  0  0  0  0  0  0
  1 23  2  0  0  0  0
  1 24  1  0  0  0  0
  1 26  1  0  0  0  0
  2  3  1  0  0  0  0
  2  4  1  0  0  0  0
  2 22  2  0  0  0  0
  3  5  2  0  0  0  0
  3 30  1  0  0  0  0
  4  9  1  0  0  0  0
  4 24  2  0  0  0  0
  5 19  1  0  0  0  0
  5 20  1  0  0  0  0
  6  7  1  0  0  0  0
  6 10  1  0  0  0  0
  6 26  1  0  0  0  0
  6 31  1  6  0  0  0
  7 32  1  0  0  0  0
  7 33  1  0  0  0  0
  7 34  1  0  0  0  0
  8 27  1  0  0  0  0
  8 35  1  0  0  0  0
  8 36  1  0  0  0  0
  8 37  1  0  0  0  0
  9 20  1  0  0  0  0
  9 25  1  0  0  0  0
 10 27  1  0  0  0  0
 10 38  1  0  0  0  0
 10 39  1  0  0  0  0
 11 12  1  0  0  0  0
 12 13  2  0  0  0  0
 12 15  1  0  0  0  0
 13 14  1  0  0  0  0
 13 40  1  0  0  0  0
 14 18  2  0  0  0  0
 14 41  1  0  0  0  0
 15 16  2  0  0  0  0
 15 42  1  0  0  0  0
 16 17  1  0  0  0  0
 16 18  1  0  0  0  0
 18 19  1  0  0  0  0
 20 21  2  0  0  0  0
 22 23  1  0  0  0  0
 22 43  1  0  0  0  0
 25 44  1  0  0  0  0
 25 45  1  0  0  0  0
 25 46  1  0  0  0  0
 26 47  1  0  0  0  0
 27 28  2  0  0  0  0
 27 29  2  0  0  0  0
M  END
$$$$
