p38a_2n
 OpenBabel02232411163D
Structure written by MMmdl.
 53 56  0  0  0  0  0  0  0  0999 V2000
   38.3090   36.5540   17.1820 C   0  0  0  0  0  0  0  0  0  0  0  0
   34.4300   35.0760   21.2020 C   0  0  0  0  0  0  0  0  0  0  0  0
   37.5370   36.1030   18.2490 C   0  0  0  0  0  0  0  0  0  0  0  0
   33.8620   39.0970   23.8310 C   0  0  0  0  0  0  0  0  0  0  0  0
   34.6260   37.9420   21.4430 C   0  0  0  0  0  0  0  0  0  0  0  0
   35.1020   37.3010   20.2470 C   0  0  0  0  0  0  0  0  0  0  0  0
   37.6500   36.7020   15.9540 C   0  0  0  0  0  0  0  0  0  0  0  0
   36.3000   36.3980   15.7630 C   0  0  0  0  0  0  0  0  0  0  0  0
   35.5500   35.9330   16.8480 C   0  0  0  0  0  0  0  0  0  0  0  0
   34.0760   37.1600   22.5020 C   0  0  0  0  0  0  0  0  0  0  0  0
   34.6820   39.3470   21.6480 C   0  0  0  0  0  0  0  0  0  0  0  0
   35.0350   35.9520   20.1630 C   0  0  0  0  0  0  0  0  0  0  0  0
   36.1750   35.7750   18.0880 C   0  0  0  0  0  0  0  0  0  0  0  0
   38.0810   35.9760   19.4520 F   0  0  0  0  0  0  0  0  0  0  0  0
   35.4760   35.1380   19.1220 O   0  0  0  0  0  0  0  0  0  0  0  0
   34.3240   39.9390   22.7980 N   0  0  0  0  0  0  0  0  0  0  0  0
   34.3450   33.8680   21.1380 O   0  0  0  0  0  0  0  0  0  0  0  0
   33.9120   35.7710   22.3500 N   0  0  0  0  0  0  0  0  0  0  0  0
   33.7040   37.7300   23.6900 N   0  0  0  0  0  0  0  0  0  0  0  0
   33.5230   39.6670   25.0350 N   0  0  0  0  0  0  0  0  0  0  0  0
   39.3640   36.8160   17.3050 H   0  0  0  0  0  0  0  0  0  0  0  0
   35.5100   37.9290   19.4520 H   0  0  0  0  0  0  0  0  0  0  0  0
   35.8210   36.5320   14.7910 H   0  0  0  0  0  0  0  0  0  0  0  0
   34.4850   35.7110   16.7200 H   0  0  0  0  0  0  0  0  0  0  0  0
   35.0340   40.0010   20.8350 H   0  0  0  0  0  0  0  0  0  0  0  0
   33.6670   40.6810   25.1880 H   0  0  0  0  0  0  0  0  0  0  0  0
   38.3380   37.1950   14.9270 F   0  0  0  0  0  0  0  0  0  0  0  0
   33.0920   40.5360   28.1460 C   0  0  0  0  0  0  0  0  0  0  0  0
   32.2760   39.6660   27.1820 C   0  0  0  0  0  0  0  0  0  0  0  0
   33.1370   38.8280   26.2160 C   0  0  0  0  0  0  0  0  0  0  0  0
   34.3760   38.2310   26.9180 C   0  0  0  0  0  0  0  0  0  0  0  0
   35.0860   39.2430   27.8200 C   0  0  0  0  0  0  0  0  0  0  0  0
   34.1650   39.8110   28.7800 O   0  0  0  0  0  0  0  0  0  0  0  0
   32.4730   40.8570   29.0150 H   0  0  0  0  0  0  0  0  0  0  0  0
   33.5270   41.4120   27.6170 H   0  0  0  0  0  0  0  0  0  0  0  0
   31.5950   40.3260   26.5910 H   0  0  0  0  0  0  0  0  0  0  0  0
   31.6420   38.9540   27.7680 H   0  0  0  0  0  0  0  0  0  0  0  0
   32.5020   37.9740   25.8330 H   0  0  0  0  0  0  0  0  0  0  0  0
   34.0280   37.3600   27.5300 H   0  0  0  0  0  0  0  0  0  0  0  0
   35.0980   37.8430   26.1600 H   0  0  0  0  0  0  0  0  0  0  0  0
   35.8370   38.7470   28.4770 H   0  0  0  0  0  0  0  0  0  0  0  0
   35.5380   40.0660   27.2220 H   0  0  0  0  0  0  0  0  0  0  0  0
   33.1420   34.9960   23.3830 C   0  0  0  0  0  0  0  0  0  0  0  0
   32.2240   35.5950   23.6530 H   0  0  0  0  0  0  0  0  0  0  0  0
   32.8120   34.0290   22.9130 H   0  0  0  0  0  0  0  0  0  0  0  0
   33.9310   34.7150   24.6670 C   0  0  0  0  0  0  0  0  0  0  0  0
   34.1850   35.6780   25.1770 H   0  0  0  0  0  0  0  0  0  0  0  0
   33.2440   34.1550   25.3580 H   0  0  0  0  0  0  0  0  0  0  0  0
   35.2010   33.8880   24.4490 C   0  0  0  0  0  0  0  0  0  0  0  0
   35.0660   33.1180   23.6560 H   0  0  0  0  0  0  0  0  0  0  0  0
   36.0740   34.5460   24.2570 H   0  0  0  0  0  0  0  0  0  0  0  0
   35.4770   33.0810   25.6040 O   0  0  0  0  0  0  0  0  0  0  0  0
   35.7540   33.6650   26.3680 H   0  0  0  0  0  0  0  0  0  0  0  0
  1  3  2  0  0  0  0
  1  7  1  0  0  0  0
  1 21  1  0  0  0  0
  2 12  1  0  0  0  0
  2 17  2  0  0  0  0
  2 18  1  0  0  0  0
  3 13  1  0  0  0  0
  3 14  1  0  0  0  0
  4 16  2  0  0  0  0
  4 19  1  0  0  0  0
  4 20  1  0  0  0  0
  5  6  1  0  0  0  0
  5 10  1  0  0  0  0
  5 11  2  0  0  0  0
  6 12  2  0  0  0  0
  6 22  1  0  0  0  0
  7  8  2  0  0  0  0
  7 27  1  0  0  0  0
  8  9  1  0  0  0  0
  8 23  1  0  0  0  0
  9 13  2  0  0  0  0
  9 24  1  0  0  0  0
 10 18  1  0  0  0  0
 10 19  2  0  0  0  0
 11 16  1  0  0  0  0
 11 25  1  0  0  0  0
 12 15  1  0  0  0  0
 13 15  1  0  0  0  0
 18 43  1  0  0  0  0
 20 26  1  0  0  0  0
 20 30  1  0  0  0  0
 28 29  1  0  0  0  0
 28 33  1  0  0  0  0
 28 34  1  0  0  0  0
 28 35  1  0  0  0  0
 29 30  1  0  0  0  0
 29 36  1  0  0  0  0
 29 37  1  0  0  0  0
 30 31  1  0  0  0  0
 30 38  1  0  0  0  0
 31 32  1  0  0  0  0
 31 39  1  0  0  0  0
 31 40  1  0  0  0  0
 32 33  1  0  0  0  0
 32 41  1  0  0  0  0
 32 42  1  0  0  0  0
 43 44  1  0  0  0  0
 43 45  1  0  0  0  0
 43 46  1  0  0  0  0
 46 47  1  0  0  0  0
 46 48  1  0  0  0  0
 46 49  1  0  0  0  0
 49 50  1  0  0  0  0
 49 51  1  0  0  0  0
 49 52  1  0  0  0  0
 52 53  1  0  0  0  0
M  END
$$$$
