p38a_2l
 OpenBabel02232411163D
Structure written by MMmdl.
 49 52  0  0  0  0  0  0  0  0999 V2000
   36.3700   36.0660   15.7850 C   0  0  0  0  0  0  0  0  0  0  0  0
   34.5630   34.9650   21.3070 C   0  0  0  0  0  0  0  0  0  0  0  0
   35.7070   35.5890   16.9110 C   0  0  0  0  0  0  0  0  0  0  0  0
   34.0700   38.9780   23.9660 C   0  0  0  0  0  0  0  0  0  0  0  0
   34.8110   37.8200   21.5710 C   0  0  0  0  0  0  0  0  0  0  0  0
   35.2580   37.1850   20.3600 C   0  0  0  0  0  0  0  0  0  0  0  0
   37.6630   36.5660   15.9870 C   0  0  0  0  0  0  0  0  0  0  0  0
   38.3020   36.5690   17.2300 C   0  0  0  0  0  0  0  0  0  0  0  0
   37.6010   36.1180   18.3540 C   0  0  0  0  0  0  0  0  0  0  0  0
   34.3490   37.0300   22.6660 C   0  0  0  0  0  0  0  0  0  0  0  0
   34.8250   39.2280   21.7590 C   0  0  0  0  0  0  0  0  0  0  0  0
   35.1650   35.8390   20.2620 C   0  0  0  0  0  0  0  0  0  0  0  0
   36.3020   35.6300   18.1890 C   0  0  0  0  0  0  0  0  0  0  0  0
   34.4930   35.0660   16.8080 F   0  0  0  0  0  0  0  0  0  0  0  0
   35.5620   35.0200   19.2080 O   0  0  0  0  0  0  0  0  0  0  0  0
   34.4730   39.8220   22.9090 N   0  0  0  0  0  0  0  0  0  0  0  0
   34.3330   33.7830   21.1750 O   0  0  0  0  0  0  0  0  0  0  0  0
   34.2250   35.6350   22.5350 N   0  0  0  0  0  0  0  0  0  0  0  0
   33.9850   37.6020   23.8570 N   0  0  0  0  0  0  0  0  0  0  0  0
   33.7320   39.5610   25.1620 N   0  0  0  0  0  0  0  0  0  0  0  0
   35.9000   36.0750   14.7990 H   0  0  0  0  0  0  0  0  0  0  0  0
   35.6700   37.8160   19.5680 H   0  0  0  0  0  0  0  0  0  0  0  0
   39.3230   36.9460   17.3340 H   0  0  0  0  0  0  0  0  0  0  0  0
   38.0660   36.1730   19.3410 H   0  0  0  0  0  0  0  0  0  0  0  0
   35.1340   39.8870   20.9290 H   0  0  0  0  0  0  0  0  0  0  0  0
   33.7910   40.5910   25.2710 H   0  0  0  0  0  0  0  0  0  0  0  0
   38.2970   37.0960   14.9430 F   0  0  0  0  0  0  0  0  0  0  0  0
   33.2980   40.5140   28.2020 C   0  0  0  0  0  0  0  0  0  0  0  0
   32.4090   39.6970   27.2560 C   0  0  0  0  0  0  0  0  0  0  0  0
   33.2070   38.7660   26.3190 C   0  0  0  0  0  0  0  0  0  0  0  0
   34.3360   38.0410   27.0810 C   0  0  0  0  0  0  0  0  0  0  0  0
   35.1390   38.9850   27.9750 C   0  0  0  0  0  0  0  0  0  0  0  0
   34.2730   39.7010   28.8860 O   0  0  0  0  0  0  0  0  0  0  0  0
   32.7030   40.9360   29.0440 H   0  0  0  0  0  0  0  0  0  0  0  0
   33.8350   41.3150   27.6450 H   0  0  0  0  0  0  0  0  0  0  0  0
   31.7890   40.4010   26.6490 H   0  0  0  0  0  0  0  0  0  0  0  0
   31.7140   39.0560   27.8550 H   0  0  0  0  0  0  0  0  0  0  0  0
   32.5000   37.9870   25.9070 H   0  0  0  0  0  0  0  0  0  0  0  0
   33.8600   37.2410   27.7040 H   0  0  0  0  0  0  0  0  0  0  0  0
   35.0230   37.5320   26.3610 H   0  0  0  0  0  0  0  0  0  0  0  0
   35.7970   38.4220   28.6760 H   0  0  0  0  0  0  0  0  0  0  0  0
   35.7120   39.7220   27.3680 H   0  0  0  0  0  0  0  0  0  0  0  0
   33.8890   34.7970   23.7370 C   0  0  0  0  0  0  0  0  0  0  0  0
   33.2500   35.4000   24.4420 H   0  0  0  0  0  0  0  0  0  0  0  0
   33.2950   33.9080   23.3890 H   0  0  0  0  0  0  0  0  0  0  0  0
   35.1560   34.3390   24.4580 C   0  0  0  0  0  0  0  0  0  0  0  0
   35.7250   33.5960   23.8610 H   0  0  0  0  0  0  0  0  0  0  0  0
   35.8130   35.2060   24.6980 H   0  0  0  0  0  0  0  0  0  0  0  0
   34.8640   33.8590   25.4260 H   0  0  0  0  0  0  0  0  0  0  0  0
  1  3  2  0  0  0  0
  1  7  1  0  0  0  0
  1 21  1  0  0  0  0
  2 12  1  0  0  0  0
  2 17  2  0  0  0  0
  2 18  1  0  0  0  0
  3 13  1  0  0  0  0
  3 14  1  0  0  0  0
  4 16  2  0  0  0  0
  4 19  1  0  0  0  0
  4 20  1  0  0  0  0
  5  6  1  0  0  0  0
  5 10  1  0  0  0  0
  5 11  2  0  0  0  0
  6 12  2  0  0  0  0
  6 22  1  0  0  0  0
  7  8  2  0  0  0  0
  7 27  1  0  0  0  0
  8  9  1  0  0  0  0
  8 23  1  0  0  0  0
  9 13  2  0  0  0  0
  9 24  1  0  0  0  0
 10 18  1  0  0  0  0
 10 19  2  0  0  0  0
 11 16  1  0  0  0  0
 11 25  1  0  0  0  0
 12 15  1  0  0  0  0
 13 15  1  0  0  0  0
 18 43  1  0  0  0  0
 20 26  1  0  0  0  0
 20 30  1  0  0  0  0
 28 29  1  0  0  0  0
 28 33  1  0  0  0  0
 28 34  1  0  0  0  0
 28 35  1  0  0  0  0
 29 30  1  0  0  0  0
 29 36  1  0  0  0  0
 29 37  1  0  0  0  0
 30 31  1  0  0  0  0
 30 38  1  0  0  0  0
 31 32  1  0  0  0  0
 31 39  1  0  0  0  0
 31 40  1  0  0  0  0
 32 33  1  0  0  0  0
 32 41  1  0  0  0  0
 32 42  1  0  0  0  0
 43 44  1  0  0  0  0
 43 45  1  0  0  0  0
 43 46  1  0  0  0  0
 46 47  1  0  0  0  0
 46 48  1  0  0  0  0
 46 49  1  0  0  0  0
M  END
$$$$
