23466
                    3D
 Schrodinger Suite 2022-3.
 29 30  0  0  1  0  0  0  0  0999 V2000
   43.8180   14.0070   16.8350 S   0  0  0  0  0  0  0  0  0  0  0  0
   43.6300   15.2650   15.6350 C   0  0  0  0  0  0  0  0  0  0  0  0
   42.7380   14.8450   14.6830 C   0  0  0  0  0  0  0  0  0  0  0  0
   42.1650   13.5420   14.9650 C   0  0  0  0  0  0  0  0  0  0  0  0
   42.6490   12.9380   16.0920 C   0  0  0  0  0  0  0  0  0  0  0  0
   44.4070   16.5720   15.8080 C   0  0  0  0  0  0  0  0  0  0  0  0
   45.3050   16.5300   16.6790 O   0  0  0  0  0  0  0  0  0  0  0  0
   44.1090   17.5540   15.1290 O   0  5  0  0  0  0  0  0  0  0  0  0
   42.3740   11.6440   16.6860 C   0  0  0  0  0  0  0  0  0  0  0  0
   41.0850   11.0930   16.6520 C   0  0  0  0  0  0  0  0  0  0  0  0
   40.8450    9.8100   17.1860 C   0  0  0  0  0  0  0  0  0  0  0  0
   41.8820    9.0920   17.8020 C   0  0  0  0  0  0  0  0  0  0  0  0
   43.1590    9.6610   17.8610 C   0  0  0  0  0  0  0  0  0  0  0  0
   43.4140   10.9100   17.3040 C   0  0  0  0  0  0  0  0  0  0  0  0
   40.8450   12.7640   13.8290 Br  0  0  0  0  0  0  0  0  0  0  0  0
   42.5350   15.5190   13.5210 O   0  0  0  0  0  0  0  0  0  0  0  0
   41.1990   16.0990   13.3730 C   0  0  0  0  0  0  0  0  0  0  0  0
   41.4720   17.5270   12.8020 C   0  0  0  0  0  0  0  0  0  0  0  0
   40.4850   18.2950   12.8360 O   0  5  0  0  0  0  0  0  0  0  0  0
   42.5860   17.8040   12.3410 O   0  0  0  0  0  0  0  0  0  0  0  0
   39.5150    9.2820   17.1670 N   0  0  0  0  0  0  0  0  0  0  0  0
   40.2390   11.6390   16.2270 H   0  0  0  0  0  0  0  0  0  0  0  0
   41.7000    8.1090   18.2340 H   0  0  0  0  0  0  0  0  0  0  0  0
   43.9580    9.0980   18.3500 H   0  0  0  0  0  0  0  0  0  0  0  0
   44.4320   11.3020   17.3500 H   0  0  0  0  0  0  0  0  0  0  0  0
   40.6540   16.1350   14.3390 H   0  0  0  0  0  0  0  0  0  0  0  0
   40.6600   15.4480   12.6520 H   0  0  0  0  0  0  0  0  0  0  0  0
   38.9850    9.5020   16.3110 H   0  0  0  0  0  0  0  0  0  0  0  0
   39.4620    8.2730   17.3790 H   0  0  0  0  0  0  0  0  0  0  0  0
  1  2  1  0  0  0  0
  1  5  1  0  0  0  0
  2  3  2  0  0  0  0
  2  6  1  0  0  0  0
  3  4  1  0  0  0  0
  3 16  1  0  0  0  0
  4  5  2  0  0  0  0
  4 15  1  0  0  0  0
  5  9  1  0  0  0  0
  6  7  2  0  0  0  0
  6  8  1  0  0  0  0
  9 10  1  0  0  0  0
  9 14  2  0  0  0  0
 10 11  2  0  0  0  0
 10 22  1  0  0  0  0
 11 12  1  0  0  0  0
 11 21  1  0  0  0  0
 12 13  2  0  0  0  0
 12 23  1  0  0  0  0
 13 14  1  0  0  0  0
 13 24  1  0  0  0  0
 14 25  1  0  0  0  0
 16 17  1  0  0  0  0
 17 18  1  0  0  0  0
 17 26  1  0  0  0  0
 17 27  1  0  0  0  0
 18 19  1  0  0  0  0
 18 20  2  0  0  0  0
 21 28  1  0  0  0  0
 21 29  1  0  0  0  0
M  CHG  2   8  -1  19  -1
M  END
$$$$
