p38a_2f
 OpenBabel02232411163D
Structure written by MMmdl.
 46 49  0  0  0  0  0  0  0  0999 V2000
   33.3630   37.4980   26.4120 C   0  0  0  0  0  0  0  0  0  0  0  0
   32.2960   36.6630   25.6900 C   0  0  0  0  0  0  0  0  0  0  0  0
   30.9680   38.6220   25.2210 C   0  0  0  0  0  0  0  0  0  0  0  0
   31.8380   39.5010   26.1200 C   0  0  0  0  0  0  0  0  0  0  0  0
   36.8770   36.6750   15.6110 C   0  0  0  0  0  0  0  0  0  0  0  0
   30.9810   37.2620   25.6920 O   0  0  0  0  0  0  0  0  0  0  0  0
   34.7090   35.0680   20.8570 C   0  0  0  0  0  0  0  0  0  0  0  0
   35.8500   36.1980   16.4300 C   0  0  0  0  0  0  0  0  0  0  0  0
   34.2370   38.9440   23.7330 C   0  0  0  0  0  0  0  0  0  0  0  0
   33.3040   39.0100   26.1540 C   0  0  0  0  0  0  0  0  0  0  0  0
   34.7600   37.9250   21.2180 C   0  0  0  0  0  0  0  0  0  0  0  0
   35.0200   37.3710   19.9220 C   0  0  0  0  0  0  0  0  0  0  0  0
   38.2040   36.7930   16.0300 C   0  0  0  0  0  0  0  0  0  0  0  0
   38.5160   36.4560   17.3520 C   0  0  0  0  0  0  0  0  0  0  0  0
   37.5200   36.0220   18.2300 C   0  0  0  0  0  0  0  0  0  0  0  0
   34.5510   37.0670   22.3380 C   0  0  0  0  0  0  0  0  0  0  0  0
   34.6970   39.3260   21.4560 C   0  0  0  0  0  0  0  0  0  0  0  0
   35.0080   36.0250   19.7680 C   0  0  0  0  0  0  0  0  0  0  0  0
   36.2110   35.8920   17.7460 C   0  0  0  0  0  0  0  0  0  0  0  0
   34.4640   34.7710   23.3430 C   0  0  0  0  0  0  0  0  0  0  0  0
   34.8210   36.1090   16.0760 H   0  0  0  0  0  0  0  0  0  0  0  0
   35.1800   35.3680   18.5470 O   0  0  0  0  0  0  0  0  0  0  0  0
   34.4430   39.8460   22.6610 N   0  0  0  0  0  0  0  0  0  0  0  0
   34.5730   33.8700   20.7380 O   0  0  0  0  0  0  0  0  0  0  0  0
   34.5800   35.6750   22.1640 N   0  0  0  0  0  0  0  0  0  0  0  0
   34.2980   37.5770   23.5900 N   0  0  0  0  0  0  0  0  0  0  0  0
   34.0560   39.5390   24.9670 N   0  0  0  0  0  0  0  0  0  0  0  0
   33.2440   37.3580   27.5200 H   0  0  0  0  0  0  0  0  0  0  0  0
   34.3760   37.1030   26.1410 H   0  0  0  0  0  0  0  0  0  0  0  0
   32.5730   36.4810   24.6290 H   0  0  0  0  0  0  0  0  0  0  0  0
   32.1160   35.7080   26.2370 H   0  0  0  0  0  0  0  0  0  0  0  0
   29.8950   38.9020   25.3050 H   0  0  0  0  0  0  0  0  0  0  0  0
   31.3210   38.6540   24.1670 H   0  0  0  0  0  0  0  0  0  0  0  0
   31.7820   40.5590   25.7780 H   0  0  0  0  0  0  0  0  0  0  0  0
   31.4520   39.4610   27.1680 H   0  0  0  0  0  0  0  0  0  0  0  0
   36.5690   37.1000   14.3880 F   0  0  0  0  0  0  0  0  0  0  0  0
   33.8280   39.5260   27.0210 H   0  0  0  0  0  0  0  0  0  0  0  0
   35.2290   38.0560   19.0980 H   0  0  0  0  0  0  0  0  0  0  0  0
   39.5450   36.5680   17.7020 H   0  0  0  0  0  0  0  0  0  0  0  0
   37.7590   35.8280   19.2750 H   0  0  0  0  0  0  0  0  0  0  0  0
   34.8400   40.0310   20.6200 H   0  0  0  0  0  0  0  0  0  0  0  0
   34.9460   35.2390   24.2440 H   0  0  0  0  0  0  0  0  0  0  0  0
   33.3840   34.5710   23.5710 H   0  0  0  0  0  0  0  0  0  0  0  0
   34.9800   33.7980   23.1290 H   0  0  0  0  0  0  0  0  0  0  0  0
   34.0210   40.5880   24.9630 H   0  0  0  0  0  0  0  0  0  0  0  0
   38.9670   37.1730   15.3590 H   0  0  0  0  0  0  0  0  0  0  0  0
  1  2  1  0  0  0  0
  1 10  1  0  0  0  0
  1 28  1  0  0  0  0
  1 29  1  0  0  0  0
  2  6  1  0  0  0  0
  2 30  1  0  0  0  0
  2 31  1  0  0  0  0
  3  4  1  0  0  0  0
  3  6  1  0  0  0  0
  3 32  1  0  0  0  0
  3 33  1  0  0  0  0
  4 10  1  0  0  0  0
  4 34  1  0  0  0  0
  4 35  1  0  0  0  0
  5  8  2  0  0  0  0
  5 13  1  0  0  0  0
  5 36  1  0  0  0  0
  7 18  1  0  0  0  0
  7 24  2  0  0  0  0
  7 25  1  0  0  0  0
  8 19  1  0  0  0  0
  8 21  1  0  0  0  0
  9 23  2  0  0  0  0
  9 26  1  0  0  0  0
  9 27  1  0  0  0  0
 10 27  1  0  0  0  0
 10 37  1  0  0  0  0
 11 12  1  0  0  0  0
 11 16  1  0  0  0  0
 11 17  2  0  0  0  0
 12 18  2  0  0  0  0
 12 38  1  0  0  0  0
 13 14  2  0  0  0  0
 13 46  1  0  0  0  0
 14 15  1  0  0  0  0
 14 39  1  0  0  0  0
 15 19  2  0  0  0  0
 15 40  1  0  0  0  0
 16 25  1  0  0  0  0
 16 26  2  0  0  0  0
 17 23  1  0  0  0  0
 17 41  1  0  0  0  0
 18 22  1  0  0  0  0
 19 22  1  0  0  0  0
 20 25  1  0  0  0  0
 20 42  1  0  0  0  0
 20 43  1  0  0  0  0
 20 44  1  0  0  0  0
 27 45  1  0  0  0  0
M  END
$$$$
