p38a_2m
 OpenBabel02232411163D
Structure written by MMmdl.
 50 54  0  0  0  0  0  0  0  0999 V2000
   36.3530   36.0450   15.8480 C   0  0  0  0  0  0  0  0  0  0  0  0
   34.4280   35.0490   21.2860 C   0  0  0  0  0  0  0  0  0  0  0  0
   35.7240   35.5730   16.9960 C   0  0  0  0  0  0  0  0  0  0  0  0
   33.7600   39.1770   23.7280 C   0  0  0  0  0  0  0  0  0  0  0  0
   34.6840   37.9050   21.4600 C   0  0  0  0  0  0  0  0  0  0  0  0
   35.2510   37.2210   20.3300 C   0  0  0  0  0  0  0  0  0  0  0  0
   37.6510   36.5480   16.0090 C   0  0  0  0  0  0  0  0  0  0  0  0
   38.3240   36.5620   17.2340 C   0  0  0  0  0  0  0  0  0  0  0  0
   37.6570   36.1150   18.3800 C   0  0  0  0  0  0  0  0  0  0  0  0
   34.0630   37.1760   22.5150 C   0  0  0  0  0  0  0  0  0  0  0  0
   34.7370   39.3190   21.5970 C   0  0  0  0  0  0  0  0  0  0  0  0
   35.1540   35.8750   20.2800 C   0  0  0  0  0  0  0  0  0  0  0  0
   36.3560   35.6190   18.2550 C   0  0  0  0  0  0  0  0  0  0  0  0
   34.5060   35.0510   16.9290 F   0  0  0  0  0  0  0  0  0  0  0  0
   35.6670   35.0120   19.3130 O   0  0  0  0  0  0  0  0  0  0  0  0
   34.3000   39.9640   22.6850 N   0  0  0  0  0  0  0  0  0  0  0  0
   34.2650   33.8540   21.1820 O   0  0  0  0  0  0  0  0  0  0  0  0
   33.9070   35.7740   22.4200 N   0  0  0  0  0  0  0  0  0  0  0  0
   33.6100   37.8090   23.6480 N   0  0  0  0  0  0  0  0  0  0  0  0
   33.3460   39.8730   24.8390 N   0  0  0  0  0  0  0  0  0  0  0  0
   35.8570   36.0450   14.8740 H   0  0  0  0  0  0  0  0  0  0  0  0
   35.7500   37.8170   19.5620 H   0  0  0  0  0  0  0  0  0  0  0  0
   39.3450   36.9460   17.3080 H   0  0  0  0  0  0  0  0  0  0  0  0
   38.1490   36.1770   19.3530 H   0  0  0  0  0  0  0  0  0  0  0  0
   35.1520   39.9310   20.7800 H   0  0  0  0  0  0  0  0  0  0  0  0
   33.5500   40.8920   24.8830 H   0  0  0  0  0  0  0  0  0  0  0  0
   38.2550   37.0710   14.9450 F   0  0  0  0  0  0  0  0  0  0  0  0
   33.3880   37.9020   28.1530 C   0  0  0  0  0  0  0  0  0  0  0  0
   33.9270   38.4030   26.8070 C   0  0  0  0  0  0  0  0  0  0  0  0
   32.8770   39.3140   26.1420 C   0  0  0  0  0  0  0  0  0  0  0  0
   31.5280   38.5820   26.0150 C   0  0  0  0  0  0  0  0  0  0  0  0
   31.0970   38.0680   27.3960 C   0  0  0  0  0  0  0  0  0  0  0  0
   32.1130   37.2400   28.0060 O   0  0  0  0  0  0  0  0  0  0  0  0
   33.2800   38.7420   28.8780 H   0  0  0  0  0  0  0  0  0  0  0  0
   34.0300   37.0900   28.5670 H   0  0  0  0  0  0  0  0  0  0  0  0
   34.1520   37.5280   26.1490 H   0  0  0  0  0  0  0  0  0  0  0  0
   34.8740   38.9710   26.9750 H   0  0  0  0  0  0  0  0  0  0  0  0
   32.7300   40.2300   26.7920 H   0  0  0  0  0  0  0  0  0  0  0  0
   30.7530   39.2780   25.6150 H   0  0  0  0  0  0  0  0  0  0  0  0
   31.6210   37.7210   25.3090 H   0  0  0  0  0  0  0  0  0  0  0  0
   30.8620   38.9100   28.0840 H   0  0  0  0  0  0  0  0  0  0  0  0
   30.2410   37.3600   27.3130 H   0  0  0  0  0  0  0  0  0  0  0  0
   33.1590   35.0830   23.4910 C   0  0  0  0  0  0  0  0  0  0  0  0
   33.4490   33.6410   23.8830 C   0  0  0  0  0  0  0  0  0  0  0  0
   32.1520   33.9860   23.1710 C   0  0  0  0  0  0  0  0  0  0  0  0
   32.8970   35.7750   24.3220 H   0  0  0  0  0  0  0  0  0  0  0  0
   34.2130   33.0540   23.3590 H   0  0  0  0  0  0  0  0  0  0  0  0
   33.4110   33.3960   24.9560 H   0  0  0  0  0  0  0  0  0  0  0  0
   31.9960   33.6480   22.1390 H   0  0  0  0  0  0  0  0  0  0  0  0
   31.2130   33.9850   23.7470 H   0  0  0  0  0  0  0  0  0  0  0  0
  1  3  2  0  0  0  0
  1  7  1  0  0  0  0
  1 21  1  0  0  0  0
  2 12  1  0  0  0  0
  2 17  2  0  0  0  0
  2 18  1  0  0  0  0
  3 13  1  0  0  0  0
  3 14  1  0  0  0  0
  4 16  2  0  0  0  0
  4 19  1  0  0  0  0
  4 20  1  0  0  0  0
  5  6  1  0  0  0  0
  5 10  1  0  0  0  0
  5 11  2  0  0  0  0
  6 12  2  0  0  0  0
  6 22  1  0  0  0  0
  7  8  2  0  0  0  0
  7 27  1  0  0  0  0
  8  9  1  0  0  0  0
  8 23  1  0  0  0  0
  9 13  2  0  0  0  0
  9 24  1  0  0  0  0
 10 18  1  0  0  0  0
 10 19  2  0  0  0  0
 11 16  1  0  0  0  0
 11 25  1  0  0  0  0
 12 15  1  0  0  0  0
 13 15  1  0  0  0  0
 18 43  1  0  0  0  0
 20 26  1  0  0  0  0
 20 30  1  0  0  0  0
 28 29  1  0  0  0  0
 28 33  1  0  0  0  0
 28 34  1  0  0  0  0
 28 35  1  0  0  0  0
 29 30  1  0  0  0  0
 29 36  1  0  0  0  0
 29 37  1  0  0  0  0
 30 31  1  0  0  0  0
 30 38  1  0  0  0  0
 31 32  1  0  0  0  0
 31 39  1  0  0  0  0
 31 40  1  0  0  0  0
 32 33  1  0  0  0  0
 32 41  1  0  0  0  0
 32 42  1  0  0  0  0
 43 44  1  0  0  0  0
 43 45  1  0  0  0  0
 43 46  1  0  0  0  0
 44 45  1  0  0  0  0
 44 47  1  0  0  0  0
 44 48  1  0  0  0  0
 45 49  1  0  0  0  0
 45 50  1  0  0  0  0
M  END
$$$$
