CAT-13i
 OpenBabel02232411143D
Structure written by MMmdl.
 46 49  0  0  1  0  0  0  0  0999 V2000
   11.7280   -1.9110    1.1390 C   0  0  0  0  0  0  0  0  0  0  0  0
   13.0540   -2.1310    0.5300 N   0  0  0  0  0  0  0  0  0  0  0  0
   14.2390   -2.2330    1.2610 C   0  0  0  0  0  0  0  0  0  0  0  0
   14.3540   -2.3100    2.6140 N   0  0  0  0  0  0  0  0  0  0  0  0
   15.3360   -2.2970    0.3860 N   0  3  0  0  0  0  0  0  0  0  0  0
   14.8530   -2.6230   -1.0130 C   0  0  2  0  0  0  0  0  0  0  0  0
   15.0690   -4.1130   -1.3440 C   0  0  0  0  0  0  0  0  0  0  0  0
   15.0570   -4.9990   -0.1140 C   0  0  0  0  0  0  0  0  0  0  0  0
   13.8660   -5.1290    0.8370 C   0  0  0  0  0  0  0  0  0  0  0  0
   14.2690   -6.2980   -0.0270 C   0  0  0  0  0  0  0  0  0  0  0  0
   15.4010   -1.5930   -1.9850 C   0  0  0  0  0  0  0  0  0  0  0  0
   15.9590   -1.9310   -3.2220 C   0  0  0  0  0  0  0  0  0  0  0  0
   16.3830   -0.9130   -4.0860 C   0  0  0  0  0  0  0  0  0  0  0  0
   16.2400    0.4320   -3.7420 C   0  0  0  0  0  0  0  0  0  0  0  0
   15.6730    0.7870   -2.5050 C   0  0  0  0  0  0  0  0  0  0  0  0
   15.4480    2.1960   -2.1090 C   0  0  0  0  0  0  0  0  0  0  0  0
   15.0080    3.1510   -3.0400 C   0  0  0  0  0  0  0  0  0  0  0  0
   14.6780    4.4460   -2.6240 C   0  0  0  0  0  0  0  0  0  0  0  0
   14.7600    4.8030   -1.2740 C   0  0  0  0  0  0  0  0  0  0  0  0
   15.2140    3.8500   -0.3610 C   0  0  0  0  0  0  0  0  0  0  0  0
   15.2410    4.2240    1.3240 Cl  0  0  0  0  0  0  0  0  0  0  0  0
   15.5930    2.5690   -0.7610 C   0  0  0  0  0  0  0  0  0  0  0  0
   15.2630   -0.2380   -1.6390 C   0  0  0  0  0  0  0  0  0  0  0  0
   13.3120   -2.3660   -0.8990 C   0  0  0  0  0  0  0  0  0  0  0  0
   12.4480   -2.3240   -1.7170 O   0  0  0  0  0  0  0  0  0  0  0  0
   11.6940   -2.3350    2.1770 H   0  0  0  0  0  0  0  0  0  0  0  0
   11.5270   -0.8080    1.1720 H   0  0  0  0  0  0  0  0  0  0  0  0
   10.9440   -2.4240    0.5190 H   0  0  0  0  0  0  0  0  0  0  0  0
   13.6270   -1.9300    3.2650 H   0  0  0  0  0  0  0  0  0  0  0  0
   16.2250   -2.7300    0.7570 H   0  0  0  0  0  0  0  0  0  0  0  0
   16.0800   -4.2390   -1.8180 H   0  0  0  0  0  0  0  0  0  0  0  0
   14.3030   -4.4530   -2.0850 H   0  0  0  0  0  0  0  0  0  0  0  0
   16.0550   -4.9770    0.3500 H   0  0  0  0  0  0  0  0  0  0  0  0
   14.0720   -5.1460    1.9140 H   0  0  0  0  0  0  0  0  0  0  0  0
   12.9150   -4.6390    0.6090 H   0  0  0  0  0  0  0  0  0  0  0  0
   13.5840   -6.5590   -0.8420 H   0  0  0  0  0  0  0  0  0  0  0  0
   14.7440   -7.1750    0.4280 H   0  0  0  0  0  0  0  0  0  0  0  0
   16.0610   -2.9720   -3.5300 H   0  0  0  0  0  0  0  0  0  0  0  0
   16.8330   -1.1740   -5.0500 H   0  0  0  0  0  0  0  0  0  0  0  0
   16.5700    1.2030   -4.4460 H   0  0  0  0  0  0  0  0  0  0  0  0
   14.8980    2.8830   -4.0960 H   0  0  0  0  0  0  0  0  0  0  0  0
   14.3250    5.1770   -3.3610 H   0  0  0  0  0  0  0  0  0  0  0  0
   14.4510    5.7970   -0.9440 H   0  0  0  0  0  0  0  0  0  0  0  0
   15.9750    1.8520   -0.0320 H   0  0  0  0  0  0  0  0  0  0  0  0
   14.8210    0.0130   -0.6760 H   0  0  0  0  0  0  0  0  0  0  0  0
   15.3160   -2.3490    3.0460 H   0  0  0  0  0  0  0  0  0  0  0  0
  1  2  1  0  0  0  0
  1 26  1  0  0  0  0
  1 27  1  0  0  0  0
  1 28  1  0  0  0  0
  2  3  1  0  0  0  0
  2 24  1  0  0  0  0
  3  4  1  0  0  0  0
  3  5  2  0  0  0  0
  4 29  1  0  0  0  0
  4 46  1  0  0  0  0
  5  6  1  0  0  0  0
  5 30  1  0  0  0  0
  6  7  1  6  0  0  0
  6 11  1  0  0  0  0
  6 24  1  0  0  0  0
  7  8  1  0  0  0  0
  7 31  1  0  0  0  0
  7 32  1  0  0  0  0
  8  9  1  0  0  0  0
  8 10  1  0  0  0  0
  8 33  1  0  0  0  0
  9 10  1  0  0  0  0
  9 34  1  0  0  0  0
  9 35  1  0  0  0  0
 10 36  1  0  0  0  0
 10 37  1  0  0  0  0
 11 12  2  0  0  0  0
 11 23  1  0  0  0  0
 12 13  1  0  0  0  0
 12 38  1  0  0  0  0
 13 14  2  0  0  0  0
 13 39  1  0  0  0  0
 14 15  1  0  0  0  0
 14 40  1  0  0  0  0
 15 16  1  0  0  0  0
 15 23  2  0  0  0  0
 16 17  2  0  0  0  0
 16 22  1  0  0  0  0
 17 18  1  0  0  0  0
 17 41  1  0  0  0  0
 18 19  2  0  0  0  0
 18 42  1  0  0  0  0
 19 20  1  0  0  0  0
 19 43  1  0  0  0  0
 20 21  1  0  0  0  0
 20 22  2  0  0  0  0
 22 44  1  0  0  0  0
 23 45  1  0  0  0  0
 24 25  2  0  0  0  0
M  CHG  1   5   1
M  END
$$$$
