18637-1
 OpenBabel02232411163D
Structure written by MMmdl.
 53 54  0  0  0  0  0  0  0  0999 V2000
   23.2740   10.7280   29.0760 C   0  0  0  0  0  0  0  0  0  0  0  0
   23.5230   10.9850   30.5480 C   0  0  0  0  0  0  0  0  0  0  0  0
   22.2480   11.1020   31.2850 O   0  0  0  0  0  0  0  0  0  0  0  0
   21.5760    9.9780   31.6240 C   0  0  0  0  0  0  0  0  0  0  0  0
   22.0310    8.7790   31.2010 N   0  0  0  0  0  0  0  0  0  0  0  0
   21.2760    7.6570   31.5090 C   0  0  0  0  0  0  0  0  0  0  0  0
   20.1120    7.7220   32.2690 C   0  0  0  0  0  0  0  0  0  0  0  0
   19.6540    8.9840   32.7310 C   0  0  0  0  0  0  0  0  0  0  0  0
   18.5020    9.0530   33.4740 N   0  0  0  0  0  0  0  0  0  0  0  0
   20.3920   10.1660   32.3980 C   0  0  0  0  0  0  0  0  0  0  0  0
   20.0030   11.4740   32.7580 C   0  0  0  0  0  0  0  0  0  0  0  0
   19.7310   12.5720   33.0150 N   0  0  0  0  0  0  0  0  0  0  0  0
   21.8320    6.4890   30.9450 N   0  0  0  0  0  0  0  0  0  0  0  0
   21.2080    5.2230   30.8410 C   0  0  0  0  0  0  0  0  0  0  0  0
   20.1220    4.9940   31.3290 O   0  0  0  0  0  0  0  0  0  0  0  0
   21.9940    4.2270   30.0020 C   0  0  0  0  0  0  0  0  0  0  0  0
   23.3220    3.8670   30.5990 C   0  0  0  0  0  0  0  0  0  0  0  0
   24.4590    4.6730   30.3670 C   0  0  0  0  0  0  0  0  0  0  0  0
   24.2000    5.7590   29.5420 O   0  0  0  0  0  0  0  0  0  0  0  0
   25.2420    6.7560   29.3740 C   0  0  0  0  0  0  0  0  0  0  0  0
   25.7060    4.3670   30.9160 C   0  0  0  0  0  0  0  0  0  0  0  0
   25.8550    3.2160   31.7080 C   0  0  0  0  0  0  0  0  0  0  0  0
   24.7230    2.3760   31.9200 C   0  0  0  0  0  0  0  0  0  0  0  0
   23.4790    2.7140   31.3750 C   0  0  0  0  0  0  0  0  0  0  0  0
   24.9570    1.2670   32.7110 O   0  0  0  0  0  0  0  0  0  0  0  0
   24.0510    0.1450   32.5190 C   0  0  0  0  0  0  0  0  0  0  0  0
   27.1560    2.9130   32.2040 N   0  0  0  0  0  0  0  0  0  0  0  0
   27.4720    2.3560   33.4750 C   0  0  0  0  0  0  0  0  0  0  0  0
   26.6000    2.0110   34.2470 O   0  0  0  0  0  0  0  0  0  0  0  0
   28.9480    2.2460   33.7170 C   0  0  0  0  0  0  0  0  0  0  0  0
   22.8740    9.7010   28.9070 H   0  0  0  0  0  0  0  0  0  0  0  0
   22.5590   11.4660   28.6490 H   0  0  0  0  0  0  0  0  0  0  0  0
   24.2410   10.8190   28.5210 H   0  0  0  0  0  0  0  0  0  0  0  0
   23.9310   12.0080   30.7320 H   0  0  0  0  0  0  0  0  0  0  0  0
   24.1510   10.1920   31.0130 H   0  0  0  0  0  0  0  0  0  0  0  0
   19.5350    6.8240   32.4980 H   0  0  0  0  0  0  0  0  0  0  0  0
   18.1210    9.9470   33.7830 H   0  0  0  0  0  0  0  0  0  0  0  0
   17.9930    8.1920   33.7520 H   0  0  0  0  0  0  0  0  0  0  0  0
   22.7610    6.6230   30.4730 H   0  0  0  0  0  0  0  0  0  0  0  0
   21.3760    3.3030   29.8690 H   0  0  0  0  0  0  0  0  0  0  0  0
   22.1650    4.6900   28.9900 H   0  0  0  0  0  0  0  0  0  0  0  0
   25.5480    7.1690   30.3600 H   0  0  0  0  0  0  0  0  0  0  0  0
   26.0990    6.3110   28.8230 H   0  0  0  0  0  0  0  0  0  0  0  0
   24.7170    7.5240   28.7620 H   0  0  0  0  0  0  0  0  0  0  0  0
   26.5710    5.0050   30.7190 H   0  0  0  0  0  0  0  0  0  0  0  0
   22.6140    2.0660   31.5430 H   0  0  0  0  0  0  0  0  0  0  0  0
   24.5620   -0.6650   33.0900 H   0  0  0  0  0  0  0  0  0  0  0  0
   23.0560    0.3760   32.9580 H   0  0  0  0  0  0  0  0  0  0  0  0
   23.9830   -0.1150   31.4400 H   0  0  0  0  0  0  0  0  0  0  0  0
   27.9330    3.3220   31.6500 H   0  0  0  0  0  0  0  0  0  0  0  0
   29.4350    3.2570   33.7340 H   0  0  0  0  0  0  0  0  0  0  0  0
   29.1680    1.7490   34.6950 H   0  0  0  0  0  0  0  0  0  0  0  0
   29.4550    1.6490   32.9140 H   0  0  0  0  0  0  0  0  0  0  0  0
  1  2  1  0  0  0  0
  1 31  1  0  0  0  0
  1 32  1  0  0  0  0
  1 33  1  0  0  0  0
  2  3  1  0  0  0  0
  2 34  1  0  0  0  0
  2 35  1  0  0  0  0
  3  4  1  0  0  0  0
  4 10  2  0  0  0  0
  4  5  1  0  0  0  0
  5  6  2  0  0  0  0
  6  7  1  0  0  0  0
  6 13  1  0  0  0  0
  7  8  2  0  0  0  0
  7 36  1  0  0  0  0
  8  9  1  0  0  0  0
  8 10  1  0  0  0  0
  9 37  1  0  0  0  0
  9 38  1  0  0  0  0
 10 11  1  0  0  0  0
 11 12  3  0  0  0  0
 13 14  1  0  0  0  0
 13 39  1  0  0  0  0
 14 15  2  0  0  0  0
 14 16  1  0  0  0  0
 16 17  1  0  0  0  0
 16 40  1  0  0  0  0
 16 41  1  0  0  0  0
 17 24  2  0  0  0  0
 17 18  1  0  0  0  0
 18 19  1  0  0  0  0
 18 21  2  0  0  0  0
 19 20  1  0  0  0  0
 20 42  1  0  0  0  0
 20 43  1  0  0  0  0
 20 44  1  0  0  0  0
 21 22  1  0  0  0  0
 21 45  1  0  0  0  0
 22 23  2  0  0  0  0
 22 27  1  0  0  0  0
 23 24  1  0  0  0  0
 23 25  1  0  0  0  0
 24 46  1  0  0  0  0
 25 26  1  0  0  0  0
 26 47  1  0  0  0  0
 26 48  1  0  0  0  0
 26 49  1  0  0  0  0
 27 28  1  0  0  0  0
 27 50  1  0  0  0  0
 28 29  2  0  0  0  0
 28 30  1  0  0  0  0
 30 51  1  0  0  0  0
 30 52  1  0  0  0  0
 30 53  1  0  0  0  0
M  END
$$$$
