jmc_30
 OpenBabel02232411173D
Structure written by MMmdl.
 37 39  0  0  1  0  0  0  0  0999 V2000
   -1.5660   21.5400  -27.5940 C   0  0  0  0  0  0  0  0  0  0  0  0
   -1.0810   22.6190  -28.3370 C   0  0  0  0  0  0  0  0  0  0  0  0
   -1.8800   23.1740  -29.3390 C   0  0  0  0  0  0  0  0  0  0  0  0
   -3.1550   22.6730  -29.6310 C   0  0  0  0  0  0  0  0  0  0  0  0
   -3.6190   21.5940  -28.8620 C   0  0  0  0  0  0  0  0  0  0  0  0
   -2.8410   21.0280  -27.8510 C   0  0  0  0  0  0  0  0  0  0  0  0
   -5.1750   20.9480  -29.1790 Cl  0  0  0  0  0  0  0  0  0  0  0  0
   -4.0130   23.1830  -30.7520 C   0  0  0  0  0  0  0  0  0  0  0  0
   -4.4070   22.4650  -31.6450 O   0  0  0  0  0  0  0  0  0  0  0  0
   -4.3340   24.5540  -30.6460 N   0  0  0  0  0  0  0  0  0  0  0  0
   -5.1850   25.2920  -31.5150 C   0  0  0  0  0  0  0  0  0  0  0  0
   -5.8470   24.7240  -32.6170 C   0  0  0  0  0  0  0  0  0  0  0  0
   -6.7060   25.5350  -33.3720 C   0  0  0  0  0  0  0  0  0  0  0  0
   -6.9190   26.8490  -33.1060 N   0  0  0  0  0  0  0  0  0  0  0  0
   -6.2530   27.3940  -32.0290 C   0  0  0  0  0  0  0  0  0  0  0  0
   -5.3810   26.6580  -31.2160 C   0  0  0  0  0  0  0  0  0  0  0  0
   -6.5670   28.7630  -31.7720 N   0  0  0  0  0  0  0  0  0  0  0  0
   -5.7300   29.6900  -31.1110 C   0  0  0  0  0  0  0  0  0  0  0  0
   -4.6080   29.3930  -30.7500 O   0  0  0  0  0  0  0  0  0  0  0  0
   -6.3660   31.0330  -30.8900 C   0  0  1  0  0  0  0  0  0  0  0  0
   -5.9320   31.8680  -29.6920 C   0  0  0  0  0  0  0  0  0  0  0  0
   -5.5950   32.3460  -31.0920 C   0  0  1  0  0  0  0  0  0  0  0  0
   -4.2390   32.3700  -31.5660 C   0  0  0  0  0  0  0  0  0  0  0  0
   -1.2570   24.5110  -30.2100 Cl  0  0  0  0  0  0  0  0  0  0  0  0
   -7.4320   31.0920  -31.1760 H   0  0  0  0  0  0  0  0  0  0  0  0
   -6.1990   33.1960  -31.4860 H   0  0  0  0  0  0  0  0  0  0  0  0
   -0.9450   21.0980  -26.8070 H   0  0  0  0  0  0  0  0  0  0  0  0
   -0.0880   23.0220  -28.1180 H   0  0  0  0  0  0  0  0  0  0  0  0
   -3.2130   20.1980  -27.2490 H   0  0  0  0  0  0  0  0  0  0  0  0
   -3.9410   25.0790  -29.8440 H   0  0  0  0  0  0  0  0  0  0  0  0
   -5.7280   23.6700  -32.8830 H   0  0  0  0  0  0  0  0  0  0  0  0
   -7.2580   25.1180  -34.2300 H   0  0  0  0  0  0  0  0  0  0  0  0
   -4.8710   27.1290  -30.3710 H   0  0  0  0  0  0  0  0  0  0  0  0
   -7.5090   29.0780  -32.0970 H   0  0  0  0  0  0  0  0  0  0  0  0
   -6.7050   32.4250  -29.1380 H   0  0  0  0  0  0  0  0  0  0  0  0
   -5.1330   31.5010  -29.0330 H   0  0  0  0  0  0  0  0  0  0  0  0
   -3.1550   32.4240  -31.9630 N   0  0  0  0  0  0  0  0  0  0  0  0
  1  2  2  0  0  0  0
  1  6  1  0  0  0  0
  1 27  1  0  0  0  0
  2  3  1  0  0  0  0
  2 28  1  0  0  0  0
  3  4  2  0  0  0  0
  3 24  1  0  0  0  0
  4  5  1  0  0  0  0
  4  8  1  0  0  0  0
  5  6  2  0  0  0  0
  5  7  1  0  0  0  0
  6 29  1  0  0  0  0
  8  9  2  0  0  0  0
  8 10  1  0  0  0  0
 10 11  1  0  0  0  0
 10 30  1  0  0  0  0
 11 12  2  0  0  0  0
 11 16  1  0  0  0  0
 12 13  1  0  0  0  0
 12 31  1  0  0  0  0
 13 14  2  0  0  0  0
 13 32  1  0  0  0  0
 14 15  1  0  0  0  0
 15 16  2  0  0  0  0
 15 17  1  0  0  0  0
 16 33  1  0  0  0  0
 17 18  1  0  0  0  0
 17 34  1  0  0  0  0
 18 19  2  0  0  0  0
 18 20  1  0  0  0  0
 20 21  1  0  0  0  0
 20 22  1  0  0  0  0
 20 25  1  6  0  0  0
 21 22  1  0  0  0  0
 21 35  1  0  0  0  0
 21 36  1  0  0  0  0
 22 23  1  0  0  0  0
 22 26  1  6  0  0  0
 23 37  3  0  0  0  0
M  END
$$$$
