18639-1
 OpenBabel02232411163D
Structure written by MMmdl.
 48 49  0  0  0  0  0  0  0  0999 V2000
   23.2020   10.7930   29.0630 C   0  0  0  0  0  0  0  0  0  0  0  0
   23.4810   11.0450   30.5300 C   0  0  0  0  0  0  0  0  0  0  0  0
   22.2170   11.1570   31.2880 O   0  0  0  0  0  0  0  0  0  0  0  0
   21.5570   10.0300   31.6360 C   0  0  0  0  0  0  0  0  0  0  0  0
   22.0250    8.8310   31.2190 N   0  0  0  0  0  0  0  0  0  0  0  0
   21.2800    7.7070   31.5330 C   0  0  0  0  0  0  0  0  0  0  0  0
   20.1120    7.7620   32.2860 C   0  0  0  0  0  0  0  0  0  0  0  0
   19.6410    9.0230   32.7430 C   0  0  0  0  0  0  0  0  0  0  0  0
   18.4860    9.0810   33.4800 N   0  0  0  0  0  0  0  0  0  0  0  0
   20.3720   10.2090   32.4100 C   0  0  0  0  0  0  0  0  0  0  0  0
   19.9750   11.5150   32.7680 C   0  0  0  0  0  0  0  0  0  0  0  0
   19.7010   12.6130   33.0230 N   0  0  0  0  0  0  0  0  0  0  0  0
   21.8560    6.5380   30.9840 N   0  0  0  0  0  0  0  0  0  0  0  0
   21.2530    5.2680   30.8850 C   0  0  0  0  0  0  0  0  0  0  0  0
   20.1580    5.0210   31.3430 O   0  0  0  0  0  0  0  0  0  0  0  0
   22.0770    4.2690   30.0810 C   0  0  0  0  0  0  0  0  0  0  0  0
   23.4460    4.0010   30.6340 C   0  0  0  0  0  0  0  0  0  0  0  0
   24.5410    4.8640   30.3110 C   0  0  0  0  0  0  0  0  0  0  0  0
   24.1800    5.9100   29.4700 O   0  0  0  0  0  0  0  0  0  0  0  0
   25.1310    6.9990   29.3060 C   0  0  0  0  0  0  0  0  0  0  0  0
   25.8220    4.6260   30.7840 C   0  0  0  0  0  0  0  0  0  0  0  0
   26.0560    3.5130   31.6190 C   0  0  0  0  0  0  0  0  0  0  0  0
   27.4100    3.2610   32.1200 N   0  3  0  0  0  0  0  0  0  0  0  0
   27.5470    2.4690   33.0390 O   0  5  0  0  0  0  0  0  0  0  0  0
   28.3480    3.8490   31.5930 O   0  0  0  0  0  0  0  0  0  0  0  0
   24.9870    2.6460   31.9430 C   0  0  0  0  0  0  0  0  0  0  0  0
   23.6900    2.8970   31.4350 C   0  0  0  0  0  0  0  0  0  0  0  0
   25.3370    1.6110   32.7560 O   0  0  0  0  0  0  0  0  0  0  0  0
   24.3400    0.5750   33.0030 C   0  0  0  0  0  0  0  0  0  0  0  0
   24.1620   10.8490   28.4920 H   0  0  0  0  0  0  0  0  0  0  0  0
   22.5060   11.5540   28.6450 H   0  0  0  0  0  0  0  0  0  0  0  0
   22.7620    9.7810   28.9030 H   0  0  0  0  0  0  0  0  0  0  0  0
   23.8910   12.0670   30.7120 H   0  0  0  0  0  0  0  0  0  0  0  0
   24.1150   10.2480   30.9800 H   0  0  0  0  0  0  0  0  0  0  0  0
   19.5430    6.8590   32.5120 H   0  0  0  0  0  0  0  0  0  0  0  0
   17.9800    8.2150   33.7460 H   0  0  0  0  0  0  0  0  0  0  0  0
   18.0920    9.9720   33.7830 H   0  0  0  0  0  0  0  0  0  0  0  0
   22.7790    6.6840   30.5010 H   0  0  0  0  0  0  0  0  0  0  0  0
   21.5050    3.3050   30.0220 H   0  0  0  0  0  0  0  0  0  0  0  0
   22.1840    4.6830   29.0380 H   0  0  0  0  0  0  0  0  0  0  0  0
   25.4480    7.3950   30.2940 H   0  0  0  0  0  0  0  0  0  0  0  0
   25.9870    6.6460   28.6930 H   0  0  0  0  0  0  0  0  0  0  0  0
   24.5120    7.7450   28.7550 H   0  0  0  0  0  0  0  0  0  0  0  0
   26.6600    5.2790   30.5130 H   0  0  0  0  0  0  0  0  0  0  0  0
   22.8760    2.2080   31.6710 H   0  0  0  0  0  0  0  0  0  0  0  0
   24.9270   -0.1560   33.6090 H   0  0  0  0  0  0  0  0  0  0  0  0
   23.4940    0.9910   33.5900 H   0  0  0  0  0  0  0  0  0  0  0  0
   24.0120    0.1230   32.0410 H   0  0  0  0  0  0  0  0  0  0  0  0
  1  2  1  0  0  0  0
  1 30  1  0  0  0  0
  1 31  1  0  0  0  0
  1 32  1  0  0  0  0
  2  3  1  0  0  0  0
  2 33  1  0  0  0  0
  2 34  1  0  0  0  0
  3  4  1  0  0  0  0
  4 10  2  0  0  0  0
  4  5  1  0  0  0  0
  5  6  2  0  0  0  0
  6  7  1  0  0  0  0
  6 13  1  0  0  0  0
  7  8  2  0  0  0  0
  7 35  1  0  0  0  0
  8  9  1  0  0  0  0
  8 10  1  0  0  0  0
  9 36  1  0  0  0  0
  9 37  1  0  0  0  0
 10 11  1  0  0  0  0
 11 12  3  0  0  0  0
 13 14  1  0  0  0  0
 13 38  1  0  0  0  0
 14 15  2  0  0  0  0
 14 16  1  0  0  0  0
 16 17  1  0  0  0  0
 16 39  1  0  0  0  0
 16 40  1  0  0  0  0
 17 27  2  0  0  0  0
 17 18  1  0  0  0  0
 18 19  1  0  0  0  0
 18 21  2  0  0  0  0
 19 20  1  0  0  0  0
 20 41  1  0  0  0  0
 20 42  1  0  0  0  0
 20 43  1  0  0  0  0
 21 22  1  0  0  0  0
 21 44  1  0  0  0  0
 22 23  1  0  0  0  0
 22 26  2  0  0  0  0
 23 24  1  0  0  0  0
 23 25  2  0  0  0  0
 26 27  1  0  0  0  0
 26 28  1  0  0  0  0
 27 45  1  0  0  0  0
 28 29  1  0  0  0  0
 29 46  1  0  0  0  0
 29 47  1  0  0  0  0
 29 48  1  0  0  0  0
M  CHG  2  23   1  24  -1
M  END
$$$$
