18637-1 flip
                    3D
 Schrodinger Suite 2022-3.
 53 54  0  0  1  0  0  0  0  0999 V2000
   25.2780    2.9300   31.5010 C   0  0  0  0  0  0  0  0  0  0  0  0
   23.9330    3.0820   31.1310 C   0  0  0  0  0  0  0  0  0  0  0  0
   23.4950    4.1200   30.2700 C   0  0  0  0  0  0  0  0  0  0  0  0
   24.4700    4.9460   29.6950 C   0  0  0  0  0  0  0  0  0  0  0  0
   25.8120    4.7840   30.0310 C   0  0  0  0  0  0  0  0  0  0  0  0
   26.2370    3.8050   30.9810 C   0  0  0  0  0  0  0  0  0  0  0  0
   22.0380    4.2800   29.9630 C   0  0  0  0  0  0  0  0  0  0  0  0
   21.2910    5.2220   30.8970 C   0  0  0  0  0  0  0  0  0  0  0  0
   21.8650    6.5180   30.9860 N   0  0  0  0  0  0  0  0  0  0  0  0
   21.2820    7.6790   31.5410 C   0  0  0  0  0  0  0  0  0  0  0  0
   20.2550    4.9370   31.4560 O   0  0  0  0  0  0  0  0  0  0  0  0
   22.0260    8.8100   31.2290 N   0  0  0  0  0  0  0  0  0  0  0  0
   21.5460   10.0090   31.6250 C   0  0  0  0  0  0  0  0  0  0  0  0
   20.3420   10.1900   32.3700 C   0  0  0  0  0  0  0  0  0  0  0  0
   19.6210    9.0010   32.7150 C   0  0  0  0  0  0  0  0  0  0  0  0
   20.1070    7.7380   32.2830 C   0  0  0  0  0  0  0  0  0  0  0  0
   26.8480    5.4710   29.4050 O   0  0  0  0  0  0  0  0  0  0  0  0
   26.7130    6.9180   29.3730 C   0  0  0  0  0  0  0  0  0  0  0  0
   22.9110    2.2730   31.5580 O   0  0  0  0  0  0  0  0  0  0  0  0
   23.2450    1.0530   32.2740 C   0  0  0  0  0  0  0  0  0  0  0  0
   18.4610    9.0700   33.4440 N   0  0  0  0  0  0  0  0  0  0  0  0
   19.9190   11.4970   32.6890 C   0  0  0  0  0  0  0  0  0  0  0  0
   22.2090   11.1400   31.2920 O   0  0  0  0  0  0  0  0  0  0  0  0
   23.4920   11.0440   30.5670 C   0  0  0  0  0  0  0  0  0  0  0  0
   23.2610   10.7890   29.0920 C   0  0  0  0  0  0  0  0  0  0  0  0
   19.6180   12.5950   32.9100 N   0  0  0  0  0  0  0  0  0  0  0  0
   25.5760    2.1370   32.1960 H   0  0  0  0  0  0  0  0  0  0  0  0
   24.1900    5.7200   28.9760 H   0  0  0  0  0  0  0  0  0  0  0  0
   19.5450    6.8340   32.5260 H   0  0  0  0  0  0  0  0  0  0  0  0
   21.5500    3.2670   30.0370 H   0  0  0  0  0  0  0  0  0  0  0  0
   21.8970    4.6760   28.9240 H   0  0  0  0  0  0  0  0  0  0  0  0
   22.7770    6.6820   30.5170 H   0  0  0  0  0  0  0  0  0  0  0  0
   26.1020    7.1960   28.4880 H   0  0  0  0  0  0  0  0  0  0  0  0
   26.2730    7.3030   30.3160 H   0  0  0  0  0  0  0  0  0  0  0  0
   27.7690    7.2520   29.2550 H   0  0  0  0  0  0  0  0  0  0  0  0
   22.2290    0.6280   32.4440 H   0  0  0  0  0  0  0  0  0  0  0  0
   23.8630    0.3980   31.6240 H   0  0  0  0  0  0  0  0  0  0  0  0
   23.7430    1.2940   33.2360 H   0  0  0  0  0  0  0  0  0  0  0  0
   17.9550    8.2080   33.7250 H   0  0  0  0  0  0  0  0  0  0  0  0
   18.0680    9.9650   33.7340 H   0  0  0  0  0  0  0  0  0  0  0  0
   24.1280   10.2590   31.0360 H   0  0  0  0  0  0  0  0  0  0  0  0
   23.8820   12.0720   30.7610 H   0  0  0  0  0  0  0  0  0  0  0  0
   24.2290   10.9110   28.5450 H   0  0  0  0  0  0  0  0  0  0  0  0
   22.8930    9.7520   28.9130 H   0  0  0  0  0  0  0  0  0  0  0  0
   22.5280   11.5090   28.6640 H   0  0  0  0  0  0  0  0  0  0  0  0
   28.1950    4.5130   30.8740 H   0  0  0  0  0  0  0  0  0  0  0  0
   27.6120    3.7820   31.3270 N   0  0  0  0  0  0  0  0  0  0  0  0
   28.2530    2.9130   32.2480 C   0  0  0  0  0  0  0  0  0  0  0  0
   27.6460    2.0110   32.7970 O   0  0  0  0  0  0  0  0  0  0  0  0
   29.7060    3.2140   32.4500 C   0  0  0  0  0  0  0  0  0  0  0  0
   30.1630    2.4990   33.1820 H   0  0  0  0  0  0  0  0  0  0  0  0
   30.2840    3.1300   31.4930 H   0  0  0  0  0  0  0  0  0  0  0  0
   29.8630    4.2490   32.8490 H   0  0  0  0  0  0  0  0  0  0  0  0
  1  2  1  0  0  0  0
  1  6  2  0  0  0  0
  1 27  1  0  0  0  0
  2  3  2  0  0  0  0
  2 19  1  0  0  0  0
  3  4  1  0  0  0  0
  3  7  1  0  0  0  0
  4  5  2  0  0  0  0
  4 28  1  0  0  0  0
  5  6  1  0  0  0  0
  5 17  1  0  0  0  0
  6 47  1  0  0  0  0
  7  8  1  0  0  0  0
  7 30  1  0  0  0  0
  7 31  1  0  0  0  0
  8  9  1  0  0  0  0
  8 11  2  0  0  0  0
  9 10  1  0  0  0  0
  9 32  1  0  0  0  0
 10 12  1  0  0  0  0
 10 16  2  0  0  0  0
 12 13  2  0  0  0  0
 13 14  1  0  0  0  0
 13 23  1  0  0  0  0
 14 15  2  0  0  0  0
 14 22  1  0  0  0  0
 15 16  1  0  0  0  0
 15 21  1  0  0  0  0
 16 29  1  0  0  0  0
 17 18  1  0  0  0  0
 18 33  1  0  0  0  0
 18 34  1  0  0  0  0
 18 35  1  0  0  0  0
 19 20  1  0  0  0  0
 20 36  1  0  0  0  0
 20 37  1  0  0  0  0
 20 38  1  0  0  0  0
 21 39  1  0  0  0  0
 21 40  1  0  0  0  0
 22 26  3  0  0  0  0
 23 24  1  0  0  0  0
 24 25  1  0  0  0  0
 24 41  1  0  0  0  0
 24 42  1  0  0  0  0
 25 43  1  0  0  0  0
 25 44  1  0  0  0  0
 25 45  1  0  0  0  0
 46 47  1  0  0  0  0
 47 48  1  0  0  0  0
 48 49  2  0  0  0  0
 48 50  1  0  0  0  0
 50 51  1  0  0  0  0
 50 52  1  0  0  0  0
 50 53  1  0  0  0  0
M  END
$$$$
