p38a_2u
 OpenBabel02232411163D
Structure written by MMmdl.
 64 68  0  0  0  0  0  0  0  0999 V2000
   38.2960   36.5360   17.1780 C   0  0  0  0  0  0  0  0  0  0  0  0
   34.5510   35.0550   21.2770 C   0  0  0  0  0  0  0  0  0  0  0  0
   37.5330   36.0790   18.2500 C   0  0  0  0  0  0  0  0  0  0  0  0
   33.9660   39.1510   23.7850 C   0  0  0  0  0  0  0  0  0  0  0  0
   34.6480   37.9310   21.4100 C   0  0  0  0  0  0  0  0  0  0  0  0
   35.0760   37.2700   20.2080 C   0  0  0  0  0  0  0  0  0  0  0  0
   37.6330   36.6680   15.9510 C   0  0  0  0  0  0  0  0  0  0  0  0
   36.2870   36.3410   15.7630 C   0  0  0  0  0  0  0  0  0  0  0  0
   35.5460   35.8700   16.8520 C   0  0  0  0  0  0  0  0  0  0  0  0
   34.2250   37.1640   22.5360 C   0  0  0  0  0  0  0  0  0  0  0  0
   34.6490   39.3460   21.5530 C   0  0  0  0  0  0  0  0  0  0  0  0
   35.0630   35.9190   20.1750 C   0  0  0  0  0  0  0  0  0  0  0  0
   36.1750   35.7290   18.0920 C   0  0  0  0  0  0  0  0  0  0  0  0
   38.0810   35.9720   19.4530 F   0  0  0  0  0  0  0  0  0  0  0  0
   35.4810   35.0950   19.1320 O   0  0  0  0  0  0  0  0  0  0  0  0
   34.3280   39.9690   22.6950 N   0  0  0  0  0  0  0  0  0  0  0  0
   34.4730   33.8470   21.2100 O   0  0  0  0  0  0  0  0  0  0  0  0
   34.1320   35.7570   22.4610 N   0  0  0  0  0  0  0  0  0  0  0  0
   33.9060   37.7710   23.7230 N   0  0  0  0  0  0  0  0  0  0  0  0
   33.6030   39.7690   24.9580 N   0  0  0  0  0  0  0  0  0  0  0  0
   39.3470   36.8150   17.2990 H   0  0  0  0  0  0  0  0  0  0  0  0
   35.4090   37.8840   19.3690 H   0  0  0  0  0  0  0  0  0  0  0  0
   35.8040   36.4620   14.7920 H   0  0  0  0  0  0  0  0  0  0  0  0
   34.4840   35.6320   16.7290 H   0  0  0  0  0  0  0  0  0  0  0  0
   34.9220   39.9800   20.6930 H   0  0  0  0  0  0  0  0  0  0  0  0
   33.7470   40.7900   25.0710 H   0  0  0  0  0  0  0  0  0  0  0  0
   38.3110   37.1680   14.9210 F   0  0  0  0  0  0  0  0  0  0  0  0
   32.2110   39.1040   28.4560 C   0  0  0  0  0  0  0  0  0  0  0  0
   32.4080   39.8230   27.1150 C   0  0  0  0  0  0  0  0  0  0  0  0
   33.3490   38.9960   26.2150 C   0  0  0  0  0  0  0  0  0  0  0  0
   34.6720   38.6960   26.9520 C   0  0  0  0  0  0  0  0  0  0  0  0
   34.3700   38.0290   28.2990 C   0  0  0  0  0  0  0  0  0  0  0  0
   33.4710   38.8270   29.1050 O   0  0  0  0  0  0  0  0  0  0  0  0
   31.6530   38.1500   28.3140 H   0  0  0  0  0  0  0  0  0  0  0  0
   31.7040   39.7670   29.1950 H   0  0  0  0  0  0  0  0  0  0  0  0
   32.8400   40.8360   27.2940 H   0  0  0  0  0  0  0  0  0  0  0  0
   31.4230   39.9490   26.6060 H   0  0  0  0  0  0  0  0  0  0  0  0
   32.8400   38.0280   25.9410 H   0  0  0  0  0  0  0  0  0  0  0  0
   35.2980   38.0050   26.3370 H   0  0  0  0  0  0  0  0  0  0  0  0
   35.2420   39.6420   27.1090 H   0  0  0  0  0  0  0  0  0  0  0  0
   33.9200   37.0210   28.1490 H   0  0  0  0  0  0  0  0  0  0  0  0
   35.2810   37.9850   28.9400 H   0  0  0  0  0  0  0  0  0  0  0  0
   34.1030   33.5320   25.6340 C   0  0  0  0  0  0  0  0  0  0  0  0
   34.6590   34.1350   24.3190 C   0  0  0  0  0  0  0  0  0  0  0  0
   33.5710   34.9930   23.6450 C   0  0  0  0  0  0  0  0  0  0  0  0
   32.3500   34.1430   23.2290 C   0  0  0  0  0  0  0  0  0  0  0  0
   32.1760   32.9310   24.1760 C   0  0  0  0  0  0  0  0  0  0  0  0
   34.2780   34.2620   26.4710 H   0  0  0  0  0  0  0  0  0  0  0  0
   34.6510   32.5750   25.8330 H   0  0  0  0  0  0  0  0  0  0  0  0
   34.9800   33.3150   23.6350 H   0  0  0  0  0  0  0  0  0  0  0  0
   35.5450   34.7640   24.5680 H   0  0  0  0  0  0  0  0  0  0  0  0
   33.2100   35.7490   24.4050 H   0  0  0  0  0  0  0  0  0  0  0  0
   31.4360   34.7840   23.2840 H   0  0  0  0  0  0  0  0  0  0  0  0
   32.4390   33.7540   22.1890 H   0  0  0  0  0  0  0  0  0  0  0  0
   31.0930   32.6460   24.1820 H   0  0  0  0  0  0  0  0  0  0  0  0
   32.7730   32.0620   23.7900 H   0  0  0  0  0  0  0  0  0  0  0  0
   32.6270   33.3020   25.5480 N   0  0  0  0  0  0  0  0  0  0  0  0
   31.7570   32.7290   26.9080 S   0  0  0  0  0  0  0  0  0  0  0  0
   32.2860   33.4110   28.1060 O   0  0  0  0  0  0  0  0  0  0  0  0
   31.8690   31.2630   27.0340 O   0  0  0  0  0  0  0  0  0  0  0  0
   30.1150   33.1840   26.5860 C   0  0  0  0  0  0  0  0  0  0  0  0
   30.0430   34.1420   26.0010 H   0  0  0  0  0  0  0  0  0  0  0  0
   29.5540   32.4050   26.0110 H   0  0  0  0  0  0  0  0  0  0  0  0
   29.5350   33.3640   27.5300 H   0  0  0  0  0  0  0  0  0  0  0  0
  1  3  2  0  0  0  0
  1  7  1  0  0  0  0
  1 21  1  0  0  0  0
  2 12  1  0  0  0  0
  2 17  2  0  0  0  0
  2 18  1  0  0  0  0
  3 13  1  0  0  0  0
  3 14  1  0  0  0  0
  4 16  2  0  0  0  0
  4 19  1  0  0  0  0
  4 20  1  0  0  0  0
  5  6  1  0  0  0  0
  5 10  1  0  0  0  0
  5 11  2  0  0  0  0
  6 12  2  0  0  0  0
  6 22  1  0  0  0  0
  7  8  2  0  0  0  0
  7 27  1  0  0  0  0
  8  9  1  0  0  0  0
  8 23  1  0  0  0  0
  9 13  2  0  0  0  0
  9 24  1  0  0  0  0
 10 18  1  0  0  0  0
 10 19  2  0  0  0  0
 11 16  1  0  0  0  0
 11 25  1  0  0  0  0
 12 15  1  0  0  0  0
 13 15  1  0  0  0  0
 18 45  1  0  0  0  0
 20 26  1  0  0  0  0
 20 30  1  0  0  0  0
 28 29  1  0  0  0  0
 28 33  1  0  0  0  0
 28 34  1  0  0  0  0
 28 35  1  0  0  0  0
 29 30  1  0  0  0  0
 29 36  1  0  0  0  0
 29 37  1  0  0  0  0
 30 31  1  0  0  0  0
 30 38  1  0  0  0  0
 31 32  1  0  0  0  0
 31 39  1  0  0  0  0
 31 40  1  0  0  0  0
 32 33  1  0  0  0  0
 32 41  1  0  0  0  0
 32 42  1  0  0  0  0
 43 44  1  0  0  0  0
 43 48  1  0  0  0  0
 43 49  1  0  0  0  0
 43 57  1  0  0  0  0
 44 45  1  0  0  0  0
 44 50  1  0  0  0  0
 44 51  1  0  0  0  0
 45 46  1  0  0  0  0
 45 52  1  0  0  0  0
 46 47  1  0  0  0  0
 46 53  1  0  0  0  0
 46 54  1  0  0  0  0
 47 55  1  0  0  0  0
 47 56  1  0  0  0  0
 47 57  1  0  0  0  0
 57 58  1  0  0  0  0
 58 59  2  0  0  0  0
 58 60  2  0  0  0  0
 58 61  1  0  0  0  0
 61 62  1  0  0  0  0
 61 63  1  0  0  0  0
 61 64  1  0  0  0  0
M  END
$$$$
