30
 OpenBabel02232411153D
Structure written by MMmdl.
 51 54  0  0  0  0  0  0  0  0999 V2000
    1.9450   28.8140    6.7730 C   0  0  0  0  0  0  0  0  0  0  0  0
   -1.5190   31.4320    7.9310 C   0  0  0  0  0  0  0  0  0  0  0  0
   -0.0250   25.9700    8.9240 C   0  0  0  0  0  0  0  0  0  0  0  0
   -0.8340   25.2690   10.0230 C   0  0  0  0  0  0  0  0  0  0  0  0
   -0.6370   23.7470    9.8360 C   0  0  0  0  0  0  0  0  0  0  0  0
   -1.3130   22.9520   10.9610 C   0  0  0  0  0  0  0  0  0  0  0  0
   -0.8280   23.4130   12.3450 C   0  0  0  0  0  0  0  0  0  0  0  0
   -1.0500   24.9210   12.5360 C   0  0  0  0  0  0  0  0  0  0  0  0
   -0.3750   25.7320   11.4190 C   0  0  0  0  0  0  0  0  0  0  0  0
    4.5080   25.1820    7.5430 C   0  0  0  0  0  0  0  0  0  0  0  0
    5.3890   24.8320    6.5100 C   0  0  0  0  0  0  0  0  0  0  0  0
    5.5470   25.7140    5.4330 C   0  0  0  0  0  0  0  0  0  0  0  0
    4.8050   26.8890    5.3620 C   0  0  0  0  0  0  0  0  0  0  0  0
    1.2410   27.8710    7.5120 N   0  0  0  0  0  0  0  0  0  0  0  0
    0.0420   28.2080    8.0590 C   0  0  0  0  0  0  0  0  0  0  0  0
   -0.6410   27.3150    8.7900 O   0  0  0  0  0  0  0  0  0  0  0  0
   -0.4830   29.5130    7.8730 C   0  0  0  0  0  0  0  0  0  0  0  0
   -1.6280   30.1660    8.3440 N   0  0  0  0  0  0  0  0  0  0  0  0
   -0.3060   31.6610    7.1900 N   0  0  0  0  0  0  0  0  0  0  0  0
    0.3510   30.4380    7.1210 C   0  0  0  0  0  0  0  0  0  0  0  0
    1.5460   30.1160    6.5260 N   0  0  0  0  0  0  0  0  0  0  0  0
    3.1580   28.4240    6.2030 N   0  0  0  0  0  0  0  0  0  0  0  0
    3.8800   27.2110    6.3820 C   0  0  0  0  0  0  0  0  0  0  0  0
    3.7660   26.3620    7.4990 C   0  0  0  0  0  0  0  0  0  0  0  0
   -2.2200   32.2400    8.1220 H   0  0  0  0  0  0  0  0  0  0  0  0
    1.0430   26.0860    9.2120 H   0  0  0  0  0  0  0  0  0  0  0  0
   -0.1400   25.4850    7.9340 H   0  0  0  0  0  0  0  0  0  0  0  0
   -1.9180   25.5120    9.9100 H   0  0  0  0  0  0  0  0  0  0  0  0
   -1.0680   23.4350    8.8590 H   0  0  0  0  0  0  0  0  0  0  0  0
    0.4570   23.5120    9.8360 H   0  0  0  0  0  0  0  0  0  0  0  0
   -2.4140   23.0930   10.9000 H   0  0  0  0  0  0  0  0  0  0  0  0
   -1.0800   21.8680   10.8370 H   0  0  0  0  0  0  0  0  0  0  0  0
   -1.3800   22.8530   13.1350 H   0  0  0  0  0  0  0  0  0  0  0  0
    0.2600   23.1890   12.4400 H   0  0  0  0  0  0  0  0  0  0  0  0
   -2.1430   25.1360   12.5550 H   0  0  0  0  0  0  0  0  0  0  0  0
   -0.6160   25.2330   13.5140 H   0  0  0  0  0  0  0  0  0  0  0  0
    0.7310   25.6040   11.5120 H   0  0  0  0  0  0  0  0  0  0  0  0
   -0.6180   26.8110   11.5490 H   0  0  0  0  0  0  0  0  0  0  0  0
    4.3690   24.5300    8.4140 H   0  0  0  0  0  0  0  0  0  0  0  0
    6.2490   25.5010    4.6160 H   0  0  0  0  0  0  0  0  0  0  0  0
    4.9400   27.5560    4.5100 H   0  0  0  0  0  0  0  0  0  0  0  0
   -0.0430   32.5430    6.7260 H   0  0  0  0  0  0  0  0  0  0  0  0
    3.6240   29.1090    5.5550 H   0  0  0  0  0  0  0  0  0  0  0  0
    3.0950   26.6000    8.3260 H   0  0  0  0  0  0  0  0  0  0  0  0
    6.3090   23.3650    6.5570 S   0  0  0  0  0  0  0  0  0  0  0  0
    6.6320   22.9220    5.1800 O   0  0  0  0  0  0  0  0  0  0  0  0
    7.5180   23.6210    7.3710 O   0  0  0  0  0  0  0  0  0  0  0  0
    5.3120   22.1640    7.3150 C   0  0  0  0  0  0  0  0  0  0  0  0
    5.7830   21.1480    7.2940 H   0  0  0  0  0  0  0  0  0  0  0  0
    5.0830   22.3930    8.3910 H   0  0  0  0  0  0  0  0  0  0  0  0
    4.3140   22.0540    6.8100 H   0  0  0  0  0  0  0  0  0  0  0  0
  1 14  2  0  0  0  0
  1 21  1  0  0  0  0
  1 22  1  0  0  0  0
  2 18  2  0  0  0  0
  2 19  1  0  0  0  0
  2 25  1  0  0  0  0
  3  4  1  0  0  0  0
  3 16  1  0  0  0  0
  3 26  1  0  0  0  0
  3 27  1  0  0  0  0
  4  5  1  0  0  0  0
  4  9  1  0  0  0  0
  4 28  1  0  0  0  0
  5  6  1  0  0  0  0
  5 29  1  0  0  0  0
  5 30  1  0  0  0  0
  6  7  1  0  0  0  0
  6 31  1  0  0  0  0
  6 32  1  0  0  0  0
  7  8  1  0  0  0  0
  7 33  1  0  0  0  0
  7 34  1  0  0  0  0
  8  9  1  0  0  0  0
  8 35  1  0  0  0  0
  8 36  1  0  0  0  0
  9 37  1  0  0  0  0
  9 38  1  0  0  0  0
 10 11  2  0  0  0  0
 10 24  1  0  0  0  0
 10 39  1  0  0  0  0
 11 12  1  0  0  0  0
 11 45  1  0  0  0  0
 12 13  2  0  0  0  0
 12 40  1  0  0  0  0
 13 23  1  0  0  0  0
 13 41  1  0  0  0  0
 14 15  1  0  0  0  0
 15 16  1  0  0  0  0
 15 17  2  0  0  0  0
 17 18  1  0  0  0  0
 17 20  1  0  0  0  0
 19 20  1  0  0  0  0
 19 42  1  0  0  0  0
 20 21  2  0  0  0  0
 22 23  1  0  0  0  0
 22 43  1  0  0  0  0
 23 24  2  0  0  0  0
 24 44  1  0  0  0  0
 45 46  2  0  0  0  0
 45 47  2  0  0  0  0
 45 48  1  0  0  0  0
 48 49  1  0  0  0  0
 48 50  1  0  0  0  0
 48 51  1  0  0  0  0
M  END
$$$$
