p38a_2s
 OpenBabel02232411163D
Structure written by MMmdl.
 54 57  0  0  1  0  0  0  0  0999 V2000
   38.2360   36.4960   17.2010 C   0  0  0  0  0  0  0  0  0  0  0  0
   34.6150   35.0850   21.2890 C   0  0  0  0  0  0  0  0  0  0  0  0
   37.4280   36.0540   18.2450 C   0  0  0  0  0  0  0  0  0  0  0  0
   34.0670   39.1720   23.8260 C   0  0  0  0  0  0  0  0  0  0  0  0
   34.6170   37.9620   21.4110 C   0  0  0  0  0  0  0  0  0  0  0  0
   34.9480   37.3080   20.1740 C   0  0  0  0  0  0  0  0  0  0  0  0
   37.6110   36.6630   15.9570 C   0  0  0  0  0  0  0  0  0  0  0  0
   36.2620   36.3830   15.7290 C   0  0  0  0  0  0  0  0  0  0  0  0
   35.4740   35.9290   16.7910 C   0  0  0  0  0  0  0  0  0  0  0  0
   34.3820   37.1940   22.5900 C   0  0  0  0  0  0  0  0  0  0  0  0
   34.5440   39.3760   21.5380 C   0  0  0  0  0  0  0  0  0  0  0  0
   34.9760   35.9560   20.1410 C   0  0  0  0  0  0  0  0  0  0  0  0
   36.0620   35.7550   18.0470 C   0  0  0  0  0  0  0  0  0  0  0  0
   37.9400   35.9070   19.4600 F   0  0  0  0  0  0  0  0  0  0  0  0
   35.3080   35.1430   19.0570 O   0  0  0  0  0  0  0  0  0  0  0  0
   34.2850   39.9930   22.7000 N   0  0  0  0  0  0  0  0  0  0  0  0
   34.4940   33.8800   21.2560 O   0  0  0  0  0  0  0  0  0  0  0  0
   34.4050   35.7870   22.5340 N   0  0  0  0  0  0  0  0  0  0  0  0
   34.1250   37.7900   23.7970 N   0  0  0  0  0  0  0  0  0  0  0  0
   33.7180   39.7980   24.9980 N   0  0  0  0  0  0  0  0  0  0  0  0
   39.2920   36.7410   17.3520 H   0  0  0  0  0  0  0  0  0  0  0  0
   35.1810   37.9290   19.3070 H   0  0  0  0  0  0  0  0  0  0  0  0
   35.8110   36.5310   14.7460 H   0  0  0  0  0  0  0  0  0  0  0  0
   34.4090   35.7280   16.6350 H   0  0  0  0  0  0  0  0  0  0  0  0
   34.7050   40.0180   20.6550 H   0  0  0  0  0  0  0  0  0  0  0  0
   33.7710   40.8340   25.0610 H   0  0  0  0  0  0  0  0  0  0  0  0
   38.3340   37.1520   14.9520 F   0  0  0  0  0  0  0  0  0  0  0  0
   32.4700   39.0870   28.5360 C   0  0  0  0  0  0  0  0  0  0  0  0
   32.4900   39.7010   27.1310 C   0  0  0  0  0  0  0  0  0  0  0  0
   33.6410   39.0830   26.3080 C   0  0  0  0  0  0  0  0  0  0  0  0
   34.9800   39.2220   27.0660 C   0  0  0  0  0  0  0  0  0  0  0  0
   34.8430   38.6380   28.4770 C   0  0  0  0  0  0  0  0  0  0  0  0
   33.7450   39.2370   29.2020 O   0  0  0  0  0  0  0  0  0  0  0  0
   32.2070   38.0040   28.4930 H   0  0  0  0  0  0  0  0  0  0  0  0
   31.7830   39.6480   29.2100 H   0  0  0  0  0  0  0  0  0  0  0  0
   32.6300   40.8050   27.2060 H   0  0  0  0  0  0  0  0  0  0  0  0
   31.5160   39.5050   26.6210 H   0  0  0  0  0  0  0  0  0  0  0  0
   33.4210   37.9950   26.1220 H   0  0  0  0  0  0  0  0  0  0  0  0
   35.7820   38.6750   26.5170 H   0  0  0  0  0  0  0  0  0  0  0  0
   35.2660   40.3000   27.1260 H   0  0  0  0  0  0  0  0  0  0  0  0
   34.6890   37.5340   28.4370 H   0  0  0  0  0  0  0  0  0  0  0  0
   35.7190   38.9070   29.1110 H   0  0  0  0  0  0  0  0  0  0  0  0
   34.3210   34.9850   23.7910 C   0  0  0  0  0  0  0  0  0  0  0  0
   34.7370   33.9610   23.5840 H   0  0  0  0  0  0  0  0  0  0  0  0
   34.9600   35.4820   24.5790 H   0  0  0  0  0  0  0  0  0  0  0  0
   32.8900   34.8360   24.3730 C   0  0  2  0  0  0  0  0  0  0  0  0
   32.9750   33.8340   25.3950 O   0  0  0  0  0  0  0  0  0  0  0  0
   33.0870   32.9360   24.9790 H   0  0  0  0  0  0  0  0  0  0  0  0
   31.7950   34.4080   23.3640 C   0  0  0  0  0  0  0  0  0  0  0  0
   32.1370   34.4420   22.3080 H   0  0  0  0  0  0  0  0  0  0  0  0
   30.8680   35.0130   23.5030 H   0  0  0  0  0  0  0  0  0  0  0  0
   32.5900   35.7530   24.9370 H   0  0  0  0  0  0  0  0  0  0  0  0
   31.5160   33.0130   23.5740 O   0  0  0  0  0  0  0  0  0  0  0  0
   30.8760   32.9220   24.3280 H   0  0  0  0  0  0  0  0  0  0  0  0
  1  3  2  0  0  0  0
  1  7  1  0  0  0  0
  1 21  1  0  0  0  0
  2 12  1  0  0  0  0
  2 17  2  0  0  0  0
  2 18  1  0  0  0  0
  3 13  1  0  0  0  0
  3 14  1  0  0  0  0
  4 16  2  0  0  0  0
  4 19  1  0  0  0  0
  4 20  1  0  0  0  0
  5  6  1  0  0  0  0
  5 10  1  0  0  0  0
  5 11  2  0  0  0  0
  6 12  2  0  0  0  0
  6 22  1  0  0  0  0
  7  8  2  0  0  0  0
  7 27  1  0  0  0  0
  8  9  1  0  0  0  0
  8 23  1  0  0  0  0
  9 13  2  0  0  0  0
  9 24  1  0  0  0  0
 10 18  1  0  0  0  0
 10 19  2  0  0  0  0
 11 16  1  0  0  0  0
 11 25  1  0  0  0  0
 12 15  1  0  0  0  0
 13 15  1  0  0  0  0
 18 43  1  0  0  0  0
 20 26  1  0  0  0  0
 20 30  1  0  0  0  0
 28 29  1  0  0  0  0
 28 33  1  0  0  0  0
 28 34  1  0  0  0  0
 28 35  1  0  0  0  0
 29 30  1  0  0  0  0
 29 36  1  0  0  0  0
 29 37  1  0  0  0  0
 30 31  1  0  0  0  0
 30 38  1  0  0  0  0
 31 32  1  0  0  0  0
 31 39  1  0  0  0  0
 31 40  1  0  0  0  0
 32 33  1  0  0  0  0
 32 41  1  0  0  0  0
 32 42  1  0  0  0  0
 43 44  1  0  0  0  0
 43 45  1  0  0  0  0
 43 46  1  0  0  0  0
 46 47  1  0  0  0  0
 46 49  1  0  0  0  0
 46 52  1  1  0  0  0
 47 48  1  0  0  0  0
 49 50  1  0  0  0  0
 49 51  1  0  0  0  0
 49 53  1  0  0  0  0
 53 54  1  0  0  0  0
M  END
$$$$
