p38a_3flw
 OpenBabel02232411163D
Structure written by MMmdl.
 49 51  0  0  0  0  0  0  0  0999 V2000
   38.2680   36.5310   17.1460 C   0  0  0  0  0  0  0  0  0  0  0  0
   37.6370   36.7000   15.9060 C   0  0  0  0  0  0  0  0  0  0  0  0
   34.6440   39.7670   27.3900 C   0  0  0  0  0  0  0  0  0  0  0  0
   34.4680   38.9770   28.6940 C   0  0  0  0  0  0  0  0  0  0  0  0
   32.2840   39.3830   26.4780 C   0  0  0  0  0  0  0  0  0  0  0  0
   34.2170   35.0700   23.7250 C   0  0  0  0  0  0  0  0  0  0  0  0
   37.9840   35.9270   19.4030 F   0  0  0  0  0  0  0  0  0  0  0  0
   37.4670   36.0720   18.1890 C   0  0  0  0  0  0  0  0  0  0  0  0
   38.3490   37.2060   14.9020 F   0  0  0  0  0  0  0  0  0  0  0  0
   36.2900   36.4070   15.6800 C   0  0  0  0  0  0  0  0  0  0  0  0
   35.5100   35.9350   16.7410 C   0  0  0  0  0  0  0  0  0  0  0  0
   36.1040   35.7620   17.9940 C   0  0  0  0  0  0  0  0  0  0  0  0
   35.3550   35.1520   19.0100 O   0  0  0  0  0  0  0  0  0  0  0  0
   35.0310   35.9780   20.0860 C   0  0  0  0  0  0  0  0  0  0  0  0
   35.0440   37.3300   20.1080 C   0  0  0  0  0  0  0  0  0  0  0  0
   34.7400   38.0040   21.3410 C   0  0  0  0  0  0  0  0  0  0  0  0
   34.6840   39.4170   21.4600 C   0  0  0  0  0  0  0  0  0  0  0  0
   34.4770   40.0440   22.6300 N   0  0  0  0  0  0  0  0  0  0  0  0
   34.6250   35.1260   21.2350 C   0  0  0  0  0  0  0  0  0  0  0  0
   34.4420   33.9300   21.2020 O   0  0  0  0  0  0  0  0  0  0  0  0
   34.4440   35.8450   22.4720 N   0  0  0  0  0  0  0  0  0  0  0  0
   34.4980   37.2440   22.5240 C   0  0  0  0  0  0  0  0  0  0  0  0
   34.2880   37.8560   23.7360 N   0  0  0  0  0  0  0  0  0  0  0  0
   34.3220   39.2370   23.7690 C   0  0  0  0  0  0  0  0  0  0  0  0
   34.2470   39.8710   24.9920 N   0  0  0  0  0  0  0  0  0  0  0  0
   33.7970   39.1740   26.2370 C   0  0  0  0  0  0  0  0  0  0  0  0
   31.3650   39.0060   25.3060 C   0  0  0  0  0  0  0  0  0  0  0  0
   31.4800   37.6310   24.9170 O   0  0  0  0  0  0  0  0  0  0  0  0
   35.4090   39.4120   29.6930 O   0  0  0  0  0  0  0  0  0  0  0  0
   39.3210   36.7850   17.2960 H   0  0  0  0  0  0  0  0  0  0  0  0
   34.3580   40.8350   27.5550 H   0  0  0  0  0  0  0  0  0  0  0  0
   35.7180   39.7470   27.0820 H   0  0  0  0  0  0  0  0  0  0  0  0
   33.4830   39.1930   29.1710 H   0  0  0  0  0  0  0  0  0  0  0  0
   34.6060   37.8840   28.5220 H   0  0  0  0  0  0  0  0  0  0  0  0
   32.0000   38.7750   27.3720 H   0  0  0  0  0  0  0  0  0  0  0  0
   32.1060   40.4610   26.7210 H   0  0  0  0  0  0  0  0  0  0  0  0
   34.8420   35.4920   24.5600 H   0  0  0  0  0  0  0  0  0  0  0  0
   33.1370   35.1280   24.0210 H   0  0  0  0  0  0  0  0  0  0  0  0
   34.5010   33.9970   23.5700 H   0  0  0  0  0  0  0  0  0  0  0  0
   35.8340   36.5600   14.7000 H   0  0  0  0  0  0  0  0  0  0  0  0
   34.4480   35.7230   16.5850 H   0  0  0  0  0  0  0  0  0  0  0  0
   35.2940   37.9380   19.2360 H   0  0  0  0  0  0  0  0  0  0  0  0
   34.8000   40.0520   20.5660 H   0  0  0  0  0  0  0  0  0  0  0  0
   34.0980   40.9010   25.0170 H   0  0  0  0  0  0  0  0  0  0  0  0
   34.0190   38.0760   26.1540 H   0  0  0  0  0  0  0  0  0  0  0  0
   30.2980   39.0920   25.6160 H   0  0  0  0  0  0  0  0  0  0  0  0
   31.5780   39.6460   24.4210 H   0  0  0  0  0  0  0  0  0  0  0  0
   32.4260   37.4510   24.6960 H   0  0  0  0  0  0  0  0  0  0  0  0
   36.3280   39.3070   29.3410 H   0  0  0  0  0  0  0  0  0  0  0  0
  1  2  2  0  0  0  0
  1  8  1  0  0  0  0
  1 30  1  0  0  0  0
  2  9  1  0  0  0  0
  2 10  1  0  0  0  0
  3  4  1  0  0  0  0
  3 26  1  0  0  0  0
  3 31  1  0  0  0  0
  3 32  1  0  0  0  0
  4 29  1  0  0  0  0
  4 33  1  0  0  0  0
  4 34  1  0  0  0  0
  5 26  1  0  0  0  0
  5 27  1  0  0  0  0
  5 35  1  0  0  0  0
  5 36  1  0  0  0  0
  6 21  1  0  0  0  0
  6 37  1  0  0  0  0
  6 38  1  0  0  0  0
  6 39  1  0  0  0  0
  7  8  1  0  0  0  0
  8 12  2  0  0  0  0
 10 11  2  0  0  0  0
 10 40  1  0  0  0  0
 11 12  1  0  0  0  0
 11 41  1  0  0  0  0
 12 13  1  0  0  0  0
 13 14  1  0  0  0  0
 14 15  2  0  0  0  0
 14 19  1  0  0  0  0
 15 16  1  0  0  0  0
 15 42  1  0  0  0  0
 16 17  2  0  0  0  0
 16 22  1  0  0  0  0
 17 18  1  0  0  0  0
 17 43  1  0  0  0  0
 18 24  2  0  0  0  0
 19 20  2  0  0  0  0
 19 21  1  0  0  0  0
 21 22  1  0  0  0  0
 22 23  2  0  0  0  0
 23 24  1  0  0  0  0
 24 25  1  0  0  0  0
 25 26  1  0  0  0  0
 25 44  1  0  0  0  0
 26 45  1  0  0  0  0
 27 28  1  0  0  0  0
 27 46  1  0  0  0  0
 27 47  1  0  0  0  0
 28 48  1  0  0  0  0
 29 49  1  0  0  0  0
M  END
$$$$
