44 flip
                    3D
 Schrodinger Suite 2022-3.
 44 47  0  0  1  0  0  0  0  0999 V2000
    3.3840  -48.2630    7.2030 O   0  0  0  0  0  0  0  0  0  0  0  0
    2.9900  -49.1940    6.4880 C   0  0  0  0  0  0  0  0  0  0  0  0
    3.6950  -49.9810    5.8290 O   0  5  0  0  0  0  0  0  0  0  0  0
    1.4740  -49.4570    6.4090 C   0  0  0  0  0  0  0  0  0  0  0  0
   -0.4080  -50.7530    6.5490 C   0  0  0  0  0  0  0  0  0  0  0  0
   -1.3460  -51.7800    6.7480 C   0  0  0  0  0  0  0  0  0  0  0  0
   -2.6750  -51.4950    6.4700 C   0  0  0  0  0  0  0  0  0  0  0  0
   -3.0700  -50.2190    6.0030 C   0  0  0  0  0  0  0  0  0  0  0  0
   -2.1480  -49.2000    5.8060 C   0  0  0  0  0  0  0  0  0  0  0  0
   -0.7910  -49.4440    6.0790 C   0  0  0  0  0  0  0  0  0  0  0  0
    0.4160  -48.6470    6.0130 C   0  0  0  0  0  0  0  0  0  0  0  0
    0.4430  -47.2210    5.5920 C   0  0  0  0  0  0  0  0  0  0  0  0
    0.3230  -46.2450    6.7780 C   0  0  0  0  0  0  0  0  0  0  0  0
   -1.0280  -46.3350    7.4920 C   0  0  0  0  0  0  0  0  0  0  0  0
   -1.9840  -45.9050    6.4610 O   0  0  0  0  0  0  0  0  0  0  0  0
   -3.2190  -45.4170    6.7550 C   0  0  0  0  0  0  0  0  0  0  0  0
   -5.7630  -44.2740    6.8830 C   0  0  0  0  0  0  0  0  0  0  0  0
   -4.9530  -43.9880    5.8090 C   0  0  0  0  0  0  0  0  0  0  0  0
   -3.6640  -44.5470    5.7600 C   0  0  0  0  0  0  0  0  0  0  0  0
   -1.0480  -52.7640    7.1110 H   0  0  0  0  0  0  0  0  0  0  0  0
   -3.4370  -52.2610    6.6150 H   0  0  0  0  0  0  0  0  0  0  0  0
   -4.1270  -50.0440    5.7990 H   0  0  0  0  0  0  0  0  0  0  0  0
   -2.4790  -48.2230    5.4490 H   0  0  0  0  0  0  0  0  0  0  0  0
   -0.4240  -47.0360    4.9040 H   0  0  0  0  0  0  0  0  0  0  0  0
    1.3860  -46.9880    5.0420 H   0  0  0  0  0  0  0  0  0  0  0  0
    0.4530  -45.2030    6.4060 H   0  0  0  0  0  0  0  0  0  0  0  0
    1.1170  -46.4780    7.5280 H   0  0  0  0  0  0  0  0  0  0  0  0
   -1.1040  -45.6430    8.3530 H   0  0  0  0  0  0  0  0  0  0  0  0
   -1.2820  -47.3910    7.7300 H   0  0  0  0  0  0  0  0  0  0  0  0
   -3.0190  -44.2990    4.9250 H   0  0  0  0  0  0  0  0  0  0  0  0
   -5.3460  -45.1220    7.9510 C   0  0  0  0  0  0  0  0  0  0  0  0
   -4.0700  -45.7600    7.8710 C   0  0  0  0  0  0  0  0  0  0  0  0
   -3.7580  -46.7430    8.8580 C   0  0  0  0  0  0  0  0  0  0  0  0
   -4.6080  -47.0020    9.9050 C   0  0  0  0  0  0  0  0  0  0  0  0
   -5.8280  -46.2850   10.0320 C   0  0  0  0  0  0  0  0  0  0  0  0
   -6.1950  -45.3760    9.0740 C   0  0  0  0  0  0  0  0  0  0  0  0
   -2.8570  -47.3460    8.7700 H   0  0  0  0  0  0  0  0  0  0  0  0
   -4.3750  -47.7760   10.6370 H   0  0  0  0  0  0  0  0  0  0  0  0
   -6.4790  -46.4890   10.8800 H   0  0  0  0  0  0  0  0  0  0  0  0
   -7.1500  -44.8550    9.1620 H   0  0  0  0  0  0  0  0  0  0  0  0
   -5.2890  -43.3380    4.9970 H   0  0  0  0  0  0  0  0  0  0  0  0
   -7.3650  -43.6240    6.8900 Cl  0  0  0  0  0  0  0  0  0  0  0  0
    0.9820  -50.7340    6.7450 N   0  0  0  0  0  0  0  0  0  0  0  0
    1.5110  -51.5380    7.0610 H   0  0  0  0  0  0  0  0  0  0  0  0
  1  2  2  0  0  0  0
  2  3  1  0  0  0  0
  2  4  1  0  0  0  0
  4 11  2  0  0  0  0
  4 43  1  0  0  0  0
  5  6  1  0  0  0  0
  5 10  2  0  0  0  0
  5 43  1  0  0  0  0
  6  7  2  0  0  0  0
  6 20  1  0  0  0  0
  7  8  1  0  0  0  0
  7 21  1  0  0  0  0
  8  9  2  0  0  0  0
  8 22  1  0  0  0  0
  9 10  1  0  0  0  0
  9 23  1  0  0  0  0
 10 11  1  0  0  0  0
 11 12  1  0  0  0  0
 12 24  1  0  0  0  0
 12 25  1  0  0  0  0
 12 13  1  0  0  0  0
 13 14  1  0  0  0  0
 13 26  1  0  0  0  0
 13 27  1  0  0  0  0
 14 15  1  0  0  0  0
 14 28  1  0  0  0  0
 14 29  1  0  0  0  0
 15 16  1  0  0  0  0
 16 19  2  0  0  0  0
 16 32  1  0  0  0  0
 17 18  2  0  0  0  0
 17 31  1  0  0  0  0
 17 42  1  0  0  0  0
 18 19  1  0  0  0  0
 18 41  1  0  0  0  0
 19 30  1  0  0  0  0
 31 32  2  0  0  0  0
 31 36  1  0  0  0  0
 32 33  1  0  0  0  0
 33 34  2  0  0  0  0
 33 37  1  0  0  0  0
 34 35  1  0  0  0  0
 34 38  1  0  0  0  0
 35 36  2  0  0  0  0
 35 39  1  0  0  0  0
 36 40  1  0  0  0  0
 43 44  1  0  0  0  0
M  CHG  1   3  -1
M  END
$$$$
