p38a_2g
 OpenBabel02232411163D
Structure written by MMmdl.
 46 49  0  0  0  0  0  0  0  0999 V2000
   32.3140   39.6450   26.9820 C   0  0  0  0  0  0  0  0  0  0  0  0
   32.1840   38.9450   28.3400 C   0  0  0  0  0  0  0  0  0  0  0  0
   34.4900   38.2270   28.2960 C   0  0  0  0  0  0  0  0  0  0  0  0
   34.7320   38.8840   26.9310 C   0  0  0  0  0  0  0  0  0  0  0  0
   38.4040   36.4470   17.2850 C   0  0  0  0  0  0  0  0  0  0  0  0
   33.4500   38.9040   29.0380 O   0  0  0  0  0  0  0  0  0  0  0  0
   34.5430   35.0910   21.0810 C   0  0  0  0  0  0  0  0  0  0  0  0
   37.4920   36.0370   18.2540 C   0  0  0  0  0  0  0  0  0  0  0  0
   33.9730   39.1240   23.6960 C   0  0  0  0  0  0  0  0  0  0  0  0
   33.4060   38.9490   26.1410 C   0  0  0  0  0  0  0  0  0  0  0  0
   34.6050   37.9690   21.2710 C   0  0  0  0  0  0  0  0  0  0  0  0
   34.9640   37.3350   20.0340 C   0  0  0  0  0  0  0  0  0  0  0  0
   37.9430   36.6190   15.9730 C   0  0  0  0  0  0  0  0  0  0  0  0
   36.6060   36.3740   15.6470 C   0  0  0  0  0  0  0  0  0  0  0  0
   35.6920   35.9510   16.6210 C   0  0  0  0  0  0  0  0  0  0  0  0
   34.2810   37.1750   22.4120 C   0  0  0  0  0  0  0  0  0  0  0  0
   34.5670   39.3800   21.4400 C   0  0  0  0  0  0  0  0  0  0  0  0
   34.9550   35.9840   19.9660 C   0  0  0  0  0  0  0  0  0  0  0  0
   36.1460   35.7760   17.9280 C   0  0  0  0  0  0  0  0  0  0  0  0
   33.9330   34.9740   23.5300 C   0  0  0  0  0  0  0  0  0  0  0  0
   37.8840   35.8830   19.5150 F   0  0  0  0  0  0  0  0  0  0  0  0
   35.2660   35.2010   18.8560 O   0  0  0  0  0  0  0  0  0  0  0  0
   34.2700   39.9700   22.6080 N   0  0  0  0  0  0  0  0  0  0  0  0
   34.4340   33.8860   21.0160 O   0  0  0  0  0  0  0  0  0  0  0  0
   34.2580   35.7740   22.3150 N   0  0  0  0  0  0  0  0  0  0  0  0
   33.9840   37.7450   23.6240 N   0  0  0  0  0  0  0  0  0  0  0  0
   33.5860   39.7220   24.8740 N   0  0  0  0  0  0  0  0  0  0  0  0
   31.3380   39.6010   26.4410 H   0  0  0  0  0  0  0  0  0  0  0  0
   32.5800   40.7180   27.1380 H   0  0  0  0  0  0  0  0  0  0  0  0
   31.5470   39.5330   29.0400 H   0  0  0  0  0  0  0  0  0  0  0  0
   31.8020   37.9050   28.2180 H   0  0  0  0  0  0  0  0  0  0  0  0
   34.2090   37.1550   28.1780 H   0  0  0  0  0  0  0  0  0  0  0  0
   35.3740   38.3470   28.9640 H   0  0  0  0  0  0  0  0  0  0  0  0
   35.1410   39.9130   27.0700 H   0  0  0  0  0  0  0  0  0  0  0  0
   35.4810   38.2800   26.3640 H   0  0  0  0  0  0  0  0  0  0  0  0
   39.4460   36.6600   17.5360 H   0  0  0  0  0  0  0  0  0  0  0  0
   33.0660   37.9050   25.8880 H   0  0  0  0  0  0  0  0  0  0  0  0
   35.2450   37.9680   19.1890 H   0  0  0  0  0  0  0  0  0  0  0  0
   36.2560   36.5320   14.6260 H   0  0  0  0  0  0  0  0  0  0  0  0
   34.6460   35.7800   16.3530 H   0  0  0  0  0  0  0  0  0  0  0  0
   34.7840   40.0410   20.5850 H   0  0  0  0  0  0  0  0  0  0  0  0
   34.6630   35.2100   24.3510 H   0  0  0  0  0  0  0  0  0  0  0  0
   32.9010   35.2290   23.8950 H   0  0  0  0  0  0  0  0  0  0  0  0
   33.9800   33.8790   23.2990 H   0  0  0  0  0  0  0  0  0  0  0  0
   33.6990   40.7480   24.9910 H   0  0  0  0  0  0  0  0  0  0  0  0
   38.6290   36.9710   15.2030 H   0  0  0  0  0  0  0  0  0  0  0  0
  1  2  1  0  0  0  0
  1 10  1  0  0  0  0
  1 28  1  0  0  0  0
  1 29  1  0  0  0  0
  2  6  1  0  0  0  0
  2 30  1  0  0  0  0
  2 31  1  0  0  0  0
  3  4  1  0  0  0  0
  3  6  1  0  0  0  0
  3 32  1  0  0  0  0
  3 33  1  0  0  0  0
  4 10  1  0  0  0  0
  4 34  1  0  0  0  0
  4 35  1  0  0  0  0
  5  8  2  0  0  0  0
  5 13  1  0  0  0  0
  5 36  1  0  0  0  0
  7 18  1  0  0  0  0
  7 24  2  0  0  0  0
  7 25  1  0  0  0  0
  8 19  1  0  0  0  0
  8 21  1  0  0  0  0
  9 23  2  0  0  0  0
  9 26  1  0  0  0  0
  9 27  1  0  0  0  0
 10 27  1  0  0  0  0
 10 37  1  0  0  0  0
 11 12  1  0  0  0  0
 11 16  1  0  0  0  0
 11 17  2  0  0  0  0
 12 18  2  0  0  0  0
 12 38  1  0  0  0  0
 13 14  2  0  0  0  0
 13 46  1  0  0  0  0
 14 15  1  0  0  0  0
 14 39  1  0  0  0  0
 15 19  2  0  0  0  0
 15 40  1  0  0  0  0
 16 25  1  0  0  0  0
 16 26  2  0  0  0  0
 17 23  1  0  0  0  0
 17 41  1  0  0  0  0
 18 22  1  0  0  0  0
 19 22  1  0  0  0  0
 20 25  1  0  0  0  0
 20 42  1  0  0  0  0
 20 43  1  0  0  0  0
 20 44  1  0  0  0  0
 27 45  1  0  0  0  0
M  END
$$$$
