18633-1
 OpenBabel02232411163D
Structure written by MMmdl.
 42 43  0  0  0  0  0  0  0  0999 V2000
   23.2090   10.8610   29.0540 C   0  0  0  0  0  0  0  0  0  0  0  0
   23.4850   11.0700   30.5270 C   0  0  0  0  0  0  0  0  0  0  0  0
   22.2200   11.1400   31.2880 O   0  0  0  0  0  0  0  0  0  0  0  0
   21.5750   10.0000   31.6170 C   0  0  0  0  0  0  0  0  0  0  0  0
   22.0490    8.8100   31.1820 N   0  0  0  0  0  0  0  0  0  0  0  0
   21.3170    7.6740   31.4930 C   0  0  0  0  0  0  0  0  0  0  0  0
   20.1570    7.7140   32.2590 C   0  0  0  0  0  0  0  0  0  0  0  0
   19.6740    8.9660   32.7270 C   0  0  0  0  0  0  0  0  0  0  0  0
   18.5180    9.0170   33.4640 N   0  0  0  0  0  0  0  0  0  0  0  0
   20.3930   10.1610   32.4010 C   0  0  0  0  0  0  0  0  0  0  0  0
   19.9920   11.4610   32.7750 C   0  0  0  0  0  0  0  0  0  0  0  0
   19.7150   12.5550   33.0420 N   0  0  0  0  0  0  0  0  0  0  0  0
   21.8910    6.5160   30.9180 N   0  0  0  0  0  0  0  0  0  0  0  0
   21.3360    5.2120   30.8850 C   0  0  0  0  0  0  0  0  0  0  0  0
   20.2870    4.9430   31.4310 O   0  0  0  0  0  0  0  0  0  0  0  0
   22.1460    4.2310   30.0500 C   0  0  0  0  0  0  0  0  0  0  0  0
   23.4520    3.8620   30.6970 C   0  0  0  0  0  0  0  0  0  0  0  0
   23.5310    2.7570   31.5540 C   0  0  0  0  0  0  0  0  0  0  0  0
   24.7360    2.4140   32.1750 C   0  0  0  0  0  0  0  0  0  0  0  0
   25.8750    3.1830   31.9120 C   0  0  0  0  0  0  0  0  0  0  0  0
   25.8240    4.2870   31.0320 C   0  0  0  0  0  0  0  0  0  0  0  0
   24.6150    4.6120   30.4310 C   0  0  0  0  0  0  0  0  0  0  0  0
   27.1330    2.9710   32.4260 O   0  0  0  0  0  0  0  0  0  0  0  0
   27.3130    1.8780   33.3640 C   0  0  0  0  0  0  0  0  0  0  0  0
   22.8440    9.8260   28.8520 H   0  0  0  0  0  0  0  0  0  0  0  0
   22.4540   11.5860   28.6760 H   0  0  0  0  0  0  0  0  0  0  0  0
   24.1540   11.0120   28.4760 H   0  0  0  0  0  0  0  0  0  0  0  0
   23.8770   12.0940   30.7420 H   0  0  0  0  0  0  0  0  0  0  0  0
   24.1350   10.2730   30.9550 H   0  0  0  0  0  0  0  0  0  0  0  0
   19.6010    6.8030   32.4920 H   0  0  0  0  0  0  0  0  0  0  0  0
   18.0210    8.1500   33.7440 H   0  0  0  0  0  0  0  0  0  0  0  0
   18.1270    9.9050   33.7790 H   0  0  0  0  0  0  0  0  0  0  0  0
   22.7940    6.6760   30.4280 H   0  0  0  0  0  0  0  0  0  0  0  0
   21.5300    3.3060   29.8960 H   0  0  0  0  0  0  0  0  0  0  0  0
   22.3370    4.6880   29.0430 H   0  0  0  0  0  0  0  0  0  0  0  0
   22.6510    2.1370   31.7450 H   0  0  0  0  0  0  0  0  0  0  0  0
   24.7640    1.5500   32.8420 H   0  0  0  0  0  0  0  0  0  0  0  0
   26.7240    4.8710   30.8230 H   0  0  0  0  0  0  0  0  0  0  0  0
   24.5860    5.4560   29.7340 H   0  0  0  0  0  0  0  0  0  0  0  0
   28.4010    1.9580   33.5970 H   0  0  0  0  0  0  0  0  0  0  0  0
   27.0800    0.9070   32.8740 H   0  0  0  0  0  0  0  0  0  0  0  0
   26.6930    2.0440   34.2710 H   0  0  0  0  0  0  0  0  0  0  0  0
  1  2  1  0  0  0  0
  1 25  1  0  0  0  0
  1 26  1  0  0  0  0
  1 27  1  0  0  0  0
  2  3  1  0  0  0  0
  2 28  1  0  0  0  0
  2 29  1  0  0  0  0
  3  4  1  0  0  0  0
  4 10  2  0  0  0  0
  4  5  1  0  0  0  0
  5  6  2  0  0  0  0
  6  7  1  0  0  0  0
  6 13  1  0  0  0  0
  7  8  2  0  0  0  0
  7 30  1  0  0  0  0
  8  9  1  0  0  0  0
  8 10  1  0  0  0  0
  9 31  1  0  0  0  0
  9 32  1  0  0  0  0
 10 11  1  0  0  0  0
 11 12  3  0  0  0  0
 13 14  1  0  0  0  0
 13 33  1  0  0  0  0
 14 15  2  0  0  0  0
 14 16  1  0  0  0  0
 16 17  1  0  0  0  0
 16 34  1  0  0  0  0
 16 35  1  0  0  0  0
 17 22  2  0  0  0  0
 17 18  1  0  0  0  0
 18 19  2  0  0  0  0
 18 36  1  0  0  0  0
 19 20  1  0  0  0  0
 19 37  1  0  0  0  0
 20 21  2  0  0  0  0
 20 23  1  0  0  0  0
 21 22  1  0  0  0  0
 21 38  1  0  0  0  0
 22 39  1  0  0  0  0
 23 24  1  0  0  0  0
 24 40  1  0  0  0  0
 24 41  1  0  0  0  0
 24 42  1  0  0  0  0
M  END
$$$$
