CAT-13a
 OpenBabel02232411143D
Structure written by MMmdl.
 39 41  0  0  1  0  0  0  0  0999 V2000
   11.8040   -2.2640    1.1560 C   0  0  0  0  0  0  0  0  0  0  0  0
   13.1280   -2.5430    0.5630 N   0  0  0  0  0  0  0  0  0  0  0  0
   14.3020   -2.4940    1.3160 C   0  0  0  0  0  0  0  0  0  0  0  0
   14.3850   -2.5260    2.6770 N   0  0  0  0  0  0  0  0  0  0  0  0
   15.4110   -2.4890    0.4690 N   0  3  0  0  0  0  0  0  0  0  0  0
   14.9990   -2.7680   -0.9610 C   0  0  2  0  0  0  0  0  0  0  0  0
   15.3510   -4.2020   -1.3190 C   0  0  0  0  0  0  0  0  0  0  0  0
   15.5220   -1.6790   -1.8770 C   0  0  0  0  0  0  0  0  0  0  0  0
   16.2040   -1.9710   -3.0640 C   0  0  0  0  0  0  0  0  0  0  0  0
   16.6090   -0.9270   -3.9030 C   0  0  0  0  0  0  0  0  0  0  0  0
   16.3510    0.4030   -3.5670 C   0  0  0  0  0  0  0  0  0  0  0  0
   15.6860    0.7120   -2.3670 C   0  0  0  0  0  0  0  0  0  0  0  0
   15.4110    2.1090   -1.9620 C   0  0  0  0  0  0  0  0  0  0  0  0
   14.9930    3.0730   -2.8940 C   0  0  0  0  0  0  0  0  0  0  0  0
   14.6710    4.3680   -2.4740 C   0  0  0  0  0  0  0  0  0  0  0  0
   14.7470    4.7200   -1.1230 C   0  0  0  0  0  0  0  0  0  0  0  0
   15.1710    3.7540   -0.2080 C   0  0  0  0  0  0  0  0  0  0  0  0
   15.2020    4.1240    1.4770 Cl  0  0  0  0  0  0  0  0  0  0  0  0
   15.5260    2.4670   -0.6070 C   0  0  0  0  0  0  0  0  0  0  0  0
   15.2630   -0.3410   -1.5410 C   0  0  0  0  0  0  0  0  0  0  0  0
   13.4380   -2.6510   -0.8770 C   0  0  0  0  0  0  0  0  0  0  0  0
   12.5890   -2.6450   -1.7090 O   0  0  0  0  0  0  0  0  0  0  0  0
   11.6960   -1.1580    1.3120 H   0  0  0  0  0  0  0  0  0  0  0  0
   11.0000   -2.6360    0.4670 H   0  0  0  0  0  0  0  0  0  0  0  0
   11.7040   -2.7930    2.1430 H   0  0  0  0  0  0  0  0  0  0  0  0
   15.3420   -2.4530    3.1210 H   0  0  0  0  0  0  0  0  0  0  0  0
   16.3370   -2.8250    0.8370 H   0  0  0  0  0  0  0  0  0  0  0  0
   16.4640   -4.3350   -1.3470 H   0  0  0  0  0  0  0  0  0  0  0  0
   14.9400   -4.9230   -0.5700 H   0  0  0  0  0  0  0  0  0  0  0  0
   14.9290   -4.4670   -2.3200 H   0  0  0  0  0  0  0  0  0  0  0  0
   16.4200   -3.0010   -3.3490 H   0  0  0  0  0  0  0  0  0  0  0  0
   17.1390   -1.1590   -4.8340 H   0  0  0  0  0  0  0  0  0  0  0  0
   16.6700    1.2000   -4.2460 H   0  0  0  0  0  0  0  0  0  0  0  0
   14.8990    2.8110   -3.9530 H   0  0  0  0  0  0  0  0  0  0  0  0
   14.3340    5.1060   -3.2120 H   0  0  0  0  0  0  0  0  0  0  0  0
   14.4620    5.7220   -0.7940 H   0  0  0  0  0  0  0  0  0  0  0  0
   15.8760    1.7350    0.1220 H   0  0  0  0  0  0  0  0  0  0  0  0
   14.7240   -0.1270   -0.6220 H   0  0  0  0  0  0  0  0  0  0  0  0
   13.6320   -2.1120    3.2790 H   0  0  0  0  0  0  0  0  0  0  0  0
  1  2  1  0  0  0  0
  1 23  1  0  0  0  0
  1 24  1  0  0  0  0
  1 25  1  0  0  0  0
  2  3  1  0  0  0  0
  2 21  1  0  0  0  0
  3  4  1  0  0  0  0
  3  5  2  0  0  0  0
  4 26  1  0  0  0  0
  4 39  1  0  0  0  0
  5  6  1  0  0  0  0
  5 27  1  0  0  0  0
  6  7  1  6  0  0  0
  6  8  1  0  0  0  0
  6 21  1  0  0  0  0
  7 28  1  0  0  0  0
  7 29  1  0  0  0  0
  7 30  1  0  0  0  0
  8  9  2  0  0  0  0
  8 20  1  0  0  0  0
  9 10  1  0  0  0  0
  9 31  1  0  0  0  0
 10 11  2  0  0  0  0
 10 32  1  0  0  0  0
 11 12  1  0  0  0  0
 11 33  1  0  0  0  0
 12 13  1  0  0  0  0
 12 20  2  0  0  0  0
 13 14  2  0  0  0  0
 13 19  1  0  0  0  0
 14 15  1  0  0  0  0
 14 34  1  0  0  0  0
 15 16  2  0  0  0  0
 15 35  1  0  0  0  0
 16 17  1  0  0  0  0
 16 36  1  0  0  0  0
 17 18  1  0  0  0  0
 17 19  2  0  0  0  0
 19 37  1  0  0  0  0
 20 38  1  0  0  0  0
 21 22  2  0  0  0  0
M  CHG  1   5   1
M  END
$$$$
