p38a_2n
 OpenBabel02232411163D
Structure written by MMmdl.
 53 56  0  0  0  0  0  0  0  0999 V2000
   36.3130   35.9360   15.9650 C   0  0  0  0  0  0  0  0  0  0  0  0
   34.3340   35.0290   21.4470 C   0  0  0  0  0  0  0  0  0  0  0  0
   35.6380   35.4910   17.0970 C   0  0  0  0  0  0  0  0  0  0  0  0
   33.7040   39.1940   23.8340 C   0  0  0  0  0  0  0  0  0  0  0  0
   34.6160   37.8870   21.5800 C   0  0  0  0  0  0  0  0  0  0  0  0
   35.1420   37.1820   20.4420 C   0  0  0  0  0  0  0  0  0  0  0  0
   37.6090   36.4290   16.1650 C   0  0  0  0  0  0  0  0  0  0  0  0
   38.2400   36.4550   17.4120 C   0  0  0  0  0  0  0  0  0  0  0  0
   37.5280   36.0310   18.5400 C   0  0  0  0  0  0  0  0  0  0  0  0
   34.0150   37.1760   22.6600 C   0  0  0  0  0  0  0  0  0  0  0  0
   34.6860   39.3010   21.7010 C   0  0  0  0  0  0  0  0  0  0  0  0
   35.0290   35.8360   20.4050 C   0  0  0  0  0  0  0  0  0  0  0  0
   36.2260   35.5490   18.3780 C   0  0  0  0  0  0  0  0  0  0  0  0
   34.4180   34.9790   16.9950 F   0  0  0  0  0  0  0  0  0  0  0  0
   35.4850   34.9660   19.4160 O   0  0  0  0  0  0  0  0  0  0  0  0
   34.2570   39.9620   22.7840 N   0  0  0  0  0  0  0  0  0  0  0  0
   34.1400   33.8350   21.3880 O   0  0  0  0  0  0  0  0  0  0  0  0
   33.8870   35.7760   22.5960 N   0  0  0  0  0  0  0  0  0  0  0  0
   33.5660   37.8240   23.7870 N   0  0  0  0  0  0  0  0  0  0  0  0
   33.2500   39.9200   24.9130 N   0  0  0  0  0  0  0  0  0  0  0  0
   35.8520   35.9260   14.9740 H   0  0  0  0  0  0  0  0  0  0  0  0
   35.6230   37.7670   19.6540 H   0  0  0  0  0  0  0  0  0  0  0  0
   39.2630   36.8290   17.5120 H   0  0  0  0  0  0  0  0  0  0  0  0
   37.9850   36.1000   19.5300 H   0  0  0  0  0  0  0  0  0  0  0  0
   35.1080   39.9030   20.8790 H   0  0  0  0  0  0  0  0  0  0  0  0
   33.4950   40.9320   24.9510 H   0  0  0  0  0  0  0  0  0  0  0  0
   38.2560   36.9300   15.1150 F   0  0  0  0  0  0  0  0  0  0  0  0
   33.3330   38.1560   28.3390 C   0  0  0  0  0  0  0  0  0  0  0  0
   33.8760   38.6140   26.9790 C   0  0  0  0  0  0  0  0  0  0  0  0
   32.7780   39.3930   26.2270 C   0  0  0  0  0  0  0  0  0  0  0  0
   31.5050   38.5370   26.1020 C   0  0  0  0  0  0  0  0  0  0  0  0
   31.0640   38.0680   27.4950 C   0  0  0  0  0  0  0  0  0  0  0  0
   32.1230   37.3800   28.1990 O   0  0  0  0  0  0  0  0  0  0  0  0
   33.1290   39.0280   29.0020 H   0  0  0  0  0  0  0  0  0  0  0  0
   34.0250   37.4280   28.8240 H   0  0  0  0  0  0  0  0  0  0  0  0
   34.1920   37.7240   26.3820 H   0  0  0  0  0  0  0  0  0  0  0  0
   34.7680   39.2670   27.1370 H   0  0  0  0  0  0  0  0  0  0  0  0
   32.5290   40.3270   26.8180 H   0  0  0  0  0  0  0  0  0  0  0  0
   30.6890   39.1320   25.6300 H   0  0  0  0  0  0  0  0  0  0  0  0
   31.7060   37.6440   25.4600 H   0  0  0  0  0  0  0  0  0  0  0  0
   30.7200   38.9210   28.1200 H   0  0  0  0  0  0  0  0  0  0  0  0
   30.2840   37.2760   27.4210 H   0  0  0  0  0  0  0  0  0  0  0  0
   33.1910   35.0360   23.7030 C   0  0  0  0  0  0  0  0  0  0  0  0
   33.6250   34.0000   23.7520 H   0  0  0  0  0  0  0  0  0  0  0  0
   33.3990   35.5600   24.6780 H   0  0  0  0  0  0  0  0  0  0  0  0
   31.6760   34.9730   23.4620 C   0  0  0  0  0  0  0  0  0  0  0  0
   31.2650   36.0090   23.3970 H   0  0  0  0  0  0  0  0  0  0  0  0
   31.4570   34.4440   22.5040 H   0  0  0  0  0  0  0  0  0  0  0  0
   30.9580   34.2290   24.6010 C   0  0  0  0  0  0  0  0  0  0  0  0
   31.5810   33.4100   25.0310 H   0  0  0  0  0  0  0  0  0  0  0  0
   30.6230   34.9380   25.3920 H   0  0  0  0  0  0  0  0  0  0  0  0
   29.8130   33.5210   24.0930 O   0  0  0  0  0  0  0  0  0  0  0  0
   29.1160   34.1920   23.8070 H   0  0  0  0  0  0  0  0  0  0  0  0
  1  3  2  0  0  0  0
  1  7  1  0  0  0  0
  1 21  1  0  0  0  0
  2 12  1  0  0  0  0
  2 17  2  0  0  0  0
  2 18  1  0  0  0  0
  3 13  1  0  0  0  0
  3 14  1  0  0  0  0
  4 16  2  0  0  0  0
  4 19  1  0  0  0  0
  4 20  1  0  0  0  0
  5  6  1  0  0  0  0
  5 10  1  0  0  0  0
  5 11  2  0  0  0  0
  6 12  2  0  0  0  0
  6 22  1  0  0  0  0
  7  8  2  0  0  0  0
  7 27  1  0  0  0  0
  8  9  1  0  0  0  0
  8 23  1  0  0  0  0
  9 13  2  0  0  0  0
  9 24  1  0  0  0  0
 10 18  1  0  0  0  0
 10 19  2  0  0  0  0
 11 16  1  0  0  0  0
 11 25  1  0  0  0  0
 12 15  1  0  0  0  0
 13 15  1  0  0  0  0
 18 43  1  0  0  0  0
 20 26  1  0  0  0  0
 20 30  1  0  0  0  0
 28 29  1  0  0  0  0
 28 33  1  0  0  0  0
 28 34  1  0  0  0  0
 28 35  1  0  0  0  0
 29 30  1  0  0  0  0
 29 36  1  0  0  0  0
 29 37  1  0  0  0  0
 30 31  1  0  0  0  0
 30 38  1  0  0  0  0
 31 32  1  0  0  0  0
 31 39  1  0  0  0  0
 31 40  1  0  0  0  0
 32 33  1  0  0  0  0
 32 41  1  0  0  0  0
 32 42  1  0  0  0  0
 43 44  1  0  0  0  0
 43 45  1  0  0  0  0
 43 46  1  0  0  0  0
 46 47  1  0  0  0  0
 46 48  1  0  0  0  0
 46 49  1  0  0  0  0
 49 50  1  0  0  0  0
 49 51  1  0  0  0  0
 49 52  1  0  0  0  0
 52 53  1  0  0  0  0
M  END
$$$$
