47
 OpenBabel02232411163D
Structure written by MMmdl.
 43 46  0  0  0  0  0  0  0  0999 V2000
    4.2090  -51.0160    6.3170 O   0  0  0  0  0  0  0  0  0  0  0  0
    3.5080  -50.0540    6.6910 C   0  0  0  0  0  0  0  0  0  0  0  0
    3.9140  -49.0000    7.1980 O   0  5  0  0  0  0  0  0  0  0  0  0
    1.9920  -50.2290    6.4990 C   0  0  0  0  0  0  0  0  0  0  0  0
    0.0070  -51.3750    6.5360 C   0  0  0  0  0  0  0  0  0  0  0  0
   -1.0270  -52.3130    6.7060 C   0  0  0  0  0  0  0  0  0  0  0  0
   -2.3160  -51.9060    6.3940 C   0  0  0  0  0  0  0  0  0  0  0  0
   -2.5820  -50.6000    5.9160 C   0  0  0  0  0  0  0  0  0  0  0  0
   -1.5660  -49.6710    5.7430 C   0  0  0  0  0  0  0  0  0  0  0  0
   -0.2480  -50.0400    6.0570 C   0  0  0  0  0  0  0  0  0  0  0  0
    1.0190  -49.3420    6.0510 C   0  0  0  0  0  0  0  0  0  0  0  0
    1.1450  -47.8970    5.7220 C   0  0  0  0  0  0  0  0  0  0  0  0
    0.8040  -47.0620    6.9760 C   0  0  0  0  0  0  0  0  0  0  0  0
   -0.1240  -45.8920    6.6770 C   0  0  0  0  0  0  0  0  0  0  0  0
   -1.3940  -46.4000    6.1270 O   0  0  0  0  0  0  0  0  0  0  0  0
   -2.4600  -46.3380    7.0050 C   0  0  0  0  0  0  0  0  0  0  0  0
   -3.5810  -47.1580    8.9920 C   0  0  0  0  0  0  0  0  0  0  0  0
   -2.5300  -47.2350    8.1220 C   0  0  0  0  0  0  0  0  0  0  0  0
   -0.8310  -53.3190    7.0750 H   0  0  0  0  0  0  0  0  0  0  0  0
   -3.1500  -52.5970    6.5220 H   0  0  0  0  0  0  0  0  0  0  0  0
   -3.6130  -50.3290    5.6840 H   0  0  0  0  0  0  0  0  0  0  0  0
   -1.7910  -48.6640    5.3810 H   0  0  0  0  0  0  0  0  0  0  0  0
    0.4110  -47.6370    4.9160 H   0  0  0  0  0  0  0  0  0  0  0  0
    2.1670  -47.6420    5.3620 H   0  0  0  0  0  0  0  0  0  0  0  0
    1.7380  -46.6800    7.4400 H   0  0  0  0  0  0  0  0  0  0  0  0
    0.2830  -47.7180    7.7110 H   0  0  0  0  0  0  0  0  0  0  0  0
    0.2320  -45.2640    5.8350 H   0  0  0  0  0  0  0  0  0  0  0  0
   -0.3480  -45.2870    7.5790 H   0  0  0  0  0  0  0  0  0  0  0  0
   -1.7570  -47.9980    8.2330 H   0  0  0  0  0  0  0  0  0  0  0  0
   -3.4660  -45.4390    6.7300 C   0  0  0  0  0  0  0  0  0  0  0  0
   -3.6690  -47.8220    9.8570 H   0  0  0  0  0  0  0  0  0  0  0  0
   -4.5820  -45.3620    7.6110 C   0  0  0  0  0  0  0  0  0  0  0  0
   -4.6240  -46.1930    8.7690 C   0  0  0  0  0  0  0  0  0  0  0  0
   -5.6580  -46.1120    9.6910 N   0  0  0  0  0  0  0  0  0  0  0  0
   -6.6500  -45.2560    9.4570 C   0  0  0  0  0  0  0  0  0  0  0  0
   -6.7020  -44.4200    8.2950 C   0  0  0  0  0  0  0  0  0  0  0  0
   -5.6770  -44.4730    7.3860 C   0  0  0  0  0  0  0  0  0  0  0  0
   -7.4610  -45.2100   10.1960 H   0  0  0  0  0  0  0  0  0  0  0  0
   -7.5520  -43.7610    8.1360 H   0  0  0  0  0  0  0  0  0  0  0  0
   -5.6890  -43.8510    6.4860 H   0  0  0  0  0  0  0  0  0  0  0  0
   -3.4370  -44.7960    5.8500 H   0  0  0  0  0  0  0  0  0  0  0  0
    1.3840  -51.4680    6.7940 N   0  0  0  0  0  0  0  0  0  0  0  0
    1.8350  -52.3170    7.1160 H   0  0  0  0  0  0  0  0  0  0  0  0
  1  2  2  0  0  0  0
  2  3  1  0  0  0  0
  2  4  1  0  0  0  0
  4 11  2  0  0  0  0
  4 42  1  0  0  0  0
  5  6  2  0  0  0  0
  5 10  1  0  0  0  0
  5 42  1  0  0  0  0
  6  7  1  0  0  0  0
  6 19  1  0  0  0  0
  7  8  2  0  0  0  0
  7 20  1  0  0  0  0
  8  9  1  0  0  0  0
  8 21  1  0  0  0  0
  9 10  2  0  0  0  0
  9 22  1  0  0  0  0
 10 11  1  0  0  0  0
 11 12  1  0  0  0  0
 12 23  1  0  0  0  0
 12 24  1  0  0  0  0
 12 13  1  0  0  0  0
 13 14  1  0  0  0  0
 13 25  1  0  0  0  0
 13 26  1  0  0  0  0
 14 15  1  0  0  0  0
 14 27  1  0  0  0  0
 14 28  1  0  0  0  0
 15 16  1  0  0  0  0
 16 18  2  0  0  0  0
 16 30  1  0  0  0  0
 17 18  1  0  0  0  0
 17 31  1  0  0  0  0
 17 33  2  0  0  0  0
 18 29  1  0  0  0  0
 30 32  2  0  0  0  0
 30 41  1  0  0  0  0
 32 33  1  0  0  0  0
 32 37  1  0  0  0  0
 33 34  1  0  0  0  0
 34 35  2  0  0  0  0
 35 36  1  0  0  0  0
 35 38  1  0  0  0  0
 36 37  2  0  0  0  0
 36 39  1  0  0  0  0
 37 40  1  0  0  0  0
 42 43  1  0  0  0  0
M  CHG  1   3  -1
M  END
$$$$
