p38a_2u
 OpenBabel02232411163D
Structure written by MMmdl.
 64 68  0  0  0  0  0  0  0  0999 V2000
   38.2500   36.4960   17.2330 C   0  0  0  0  0  0  0  0  0  0  0  0
   34.4920   35.1320   21.3590 C   0  0  0  0  0  0  0  0  0  0  0  0
   37.4800   36.0630   18.3090 C   0  0  0  0  0  0  0  0  0  0  0  0
   34.0000   39.2760   23.8080 C   0  0  0  0  0  0  0  0  0  0  0  0
   34.6220   38.0120   21.4390 C   0  0  0  0  0  0  0  0  0  0  0  0
   35.0350   37.3240   20.2470 C   0  0  0  0  0  0  0  0  0  0  0  0
   37.5890   36.6250   16.0040 C   0  0  0  0  0  0  0  0  0  0  0  0
   36.2390   36.3150   15.8210 C   0  0  0  0  0  0  0  0  0  0  0  0
   35.4900   35.8710   16.9160 C   0  0  0  0  0  0  0  0  0  0  0  0
   34.2020   37.2700   22.5810 C   0  0  0  0  0  0  0  0  0  0  0  0
   34.6330   39.4280   21.5580 C   0  0  0  0  0  0  0  0  0  0  0  0
   35.0080   35.9730   20.2390 C   0  0  0  0  0  0  0  0  0  0  0  0
   36.1160   35.7350   18.1580 C   0  0  0  0  0  0  0  0  0  0  0  0
   38.0290   35.9550   19.5110 F   0  0  0  0  0  0  0  0  0  0  0  0
   35.4120   35.1270   19.2070 O   0  0  0  0  0  0  0  0  0  0  0  0
   34.3380   40.0730   22.6970 N   0  0  0  0  0  0  0  0  0  0  0  0
   34.4100   33.9240   21.3170 O   0  0  0  0  0  0  0  0  0  0  0  0
   34.0670   35.8650   22.5230 N   0  0  0  0  0  0  0  0  0  0  0  0
   33.9160   37.8980   23.7660 N   0  0  0  0  0  0  0  0  0  0  0  0
   33.6750   39.9170   24.9830 N   0  0  0  0  0  0  0  0  0  0  0  0
   39.3060   36.7600   17.3490 H   0  0  0  0  0  0  0  0  0  0  0  0
   35.3710   37.9200   19.3960 H   0  0  0  0  0  0  0  0  0  0  0  0
   35.7580   36.4310   14.8460 H   0  0  0  0  0  0  0  0  0  0  0  0
   34.4240   35.6490   16.7950 H   0  0  0  0  0  0  0  0  0  0  0  0
   34.8920   40.0460   20.6820 H   0  0  0  0  0  0  0  0  0  0  0  0
   33.8360   40.9380   25.0720 H   0  0  0  0  0  0  0  0  0  0  0  0
   38.2750   37.1030   14.9690 F   0  0  0  0  0  0  0  0  0  0  0  0
   32.4340   39.3100   28.5450 C   0  0  0  0  0  0  0  0  0  0  0  0
   32.5370   39.9740   27.1670 C   0  0  0  0  0  0  0  0  0  0  0  0
   33.5070   39.1750   26.2710 C   0  0  0  0  0  0  0  0  0  0  0  0
   34.8690   38.9960   26.9770 C   0  0  0  0  0  0  0  0  0  0  0  0
   34.6560   38.3810   28.3670 C   0  0  0  0  0  0  0  0  0  0  0  0
   33.7330   39.1610   29.1620 O   0  0  0  0  0  0  0  0  0  0  0  0
   31.9500   38.3090   28.4720 H   0  0  0  0  0  0  0  0  0  0  0  0
   31.9050   39.9720   29.2700 H   0  0  0  0  0  0  0  0  0  0  0  0
   32.9040   41.0200   27.2880 H   0  0  0  0  0  0  0  0  0  0  0  0
   31.5310   40.0080   26.6860 H   0  0  0  0  0  0  0  0  0  0  0  0
   33.0610   38.1640   26.0510 H   0  0  0  0  0  0  0  0  0  0  0  0
   35.5200   38.3170   26.3760 H   0  0  0  0  0  0  0  0  0  0  0  0
   35.3790   39.9830   27.0720 H   0  0  0  0  0  0  0  0  0  0  0  0
   34.2700   37.3380   28.2840 H   0  0  0  0  0  0  0  0  0  0  0  0
   35.5890   38.4240   28.9740 H   0  0  0  0  0  0  0  0  0  0  0  0
   33.9380   33.9140   25.8610 C   0  0  0  0  0  0  0  0  0  0  0  0
   34.5860   34.4980   24.5840 C   0  0  0  0  0  0  0  0  0  0  0  0
   33.4880   35.1560   23.7280 C   0  0  0  0  0  0  0  0  0  0  0  0
   32.4370   34.1010   23.3370 C   0  0  0  0  0  0  0  0  0  0  0  0
   31.8040   33.5290   24.6230 C   0  0  0  0  0  0  0  0  0  0  0  0
   33.5510   34.7630   26.4890 H   0  0  0  0  0  0  0  0  0  0  0  0
   34.7420   33.3790   26.4320 H   0  0  0  0  0  0  0  0  0  0  0  0
   35.0960   33.6820   24.0220 H   0  0  0  0  0  0  0  0  0  0  0  0
   35.3430   35.2570   24.8950 H   0  0  0  0  0  0  0  0  0  0  0  0
   32.9690   35.9400   24.3590 H   0  0  0  0  0  0  0  0  0  0  0  0
   31.6310   34.5610   22.7200 H   0  0  0  0  0  0  0  0  0  0  0  0
   32.9140   33.2710   22.7600 H   0  0  0  0  0  0  0  0  0  0  0  0
   31.2370   34.3490   25.1410 H   0  0  0  0  0  0  0  0  0  0  0  0
   31.0980   32.7100   24.3200 H   0  0  0  0  0  0  0  0  0  0  0  0
   32.8480   32.9430   25.5240 N   0  0  0  0  0  0  0  0  0  0  0  0
   32.2530   31.9520   26.8130 S   0  0  0  0  0  0  0  0  0  0  0  0
   31.2600   31.0300   26.2240 O   0  0  0  0  0  0  0  0  0  0  0  0
   31.6590   32.7720   27.8860 O   0  0  0  0  0  0  0  0  0  0  0  0
   33.6520   31.0990   27.3760 C   0  0  0  0  0  0  0  0  0  0  0  0
   34.2980   31.7270   28.0460 H   0  0  0  0  0  0  0  0  0  0  0  0
   33.3660   30.1990   27.9890 H   0  0  0  0  0  0  0  0  0  0  0  0
   34.2810   30.7230   26.5290 H   0  0  0  0  0  0  0  0  0  0  0  0
  1  3  2  0  0  0  0
  1  7  1  0  0  0  0
  1 21  1  0  0  0  0
  2 12  1  0  0  0  0
  2 17  2  0  0  0  0
  2 18  1  0  0  0  0
  3 13  1  0  0  0  0
  3 14  1  0  0  0  0
  4 16  2  0  0  0  0
  4 19  1  0  0  0  0
  4 20  1  0  0  0  0
  5  6  1  0  0  0  0
  5 10  1  0  0  0  0
  5 11  2  0  0  0  0
  6 12  2  0  0  0  0
  6 22  1  0  0  0  0
  7  8  2  0  0  0  0
  7 27  1  0  0  0  0
  8  9  1  0  0  0  0
  8 23  1  0  0  0  0
  9 13  2  0  0  0  0
  9 24  1  0  0  0  0
 10 18  1  0  0  0  0
 10 19  2  0  0  0  0
 11 16  1  0  0  0  0
 11 25  1  0  0  0  0
 12 15  1  0  0  0  0
 13 15  1  0  0  0  0
 18 45  1  0  0  0  0
 20 26  1  0  0  0  0
 20 30  1  0  0  0  0
 28 29  1  0  0  0  0
 28 33  1  0  0  0  0
 28 34  1  0  0  0  0
 28 35  1  0  0  0  0
 29 30  1  0  0  0  0
 29 36  1  0  0  0  0
 29 37  1  0  0  0  0
 30 31  1  0  0  0  0
 30 38  1  0  0  0  0
 31 32  1  0  0  0  0
 31 39  1  0  0  0  0
 31 40  1  0  0  0  0
 32 33  1  0  0  0  0
 32 41  1  0  0  0  0
 32 42  1  0  0  0  0
 43 44  1  0  0  0  0
 43 48  1  0  0  0  0
 43 49  1  0  0  0  0
 43 57  1  0  0  0  0
 44 45  1  0  0  0  0
 44 50  1  0  0  0  0
 44 51  1  0  0  0  0
 45 46  1  0  0  0  0
 45 52  1  0  0  0  0
 46 47  1  0  0  0  0
 46 53  1  0  0  0  0
 46 54  1  0  0  0  0
 47 55  1  0  0  0  0
 47 56  1  0  0  0  0
 47 57  1  0  0  0  0
 57 58  1  0  0  0  0
 58 59  2  0  0  0  0
 58 60  2  0  0  0  0
 58 61  1  0  0  0  0
 61 62  1  0  0  0  0
 61 63  1  0  0  0  0
 61 64  1  0  0  0  0
M  END
$$$$
