p38a_2o
 OpenBabel02232411163D
Structure written by MMmdl.
 55 58  0  0  0  0  0  0  0  0999 V2000
   36.2630   35.7920   16.1250 C   0  0  0  0  0  0  0  0  0  0  0  0
   34.5240   35.1050   21.7980 C   0  0  0  0  0  0  0  0  0  0  0  0
   35.5160   35.4160   17.2380 C   0  0  0  0  0  0  0  0  0  0  0  0
   34.3180   39.3330   24.1490 C   0  0  0  0  0  0  0  0  0  0  0  0
   34.7160   37.9640   21.7910 C   0  0  0  0  0  0  0  0  0  0  0  0
   35.0160   37.2390   20.5880 C   0  0  0  0  0  0  0  0  0  0  0  0
   37.5560   36.2700   16.3730 C   0  0  0  0  0  0  0  0  0  0  0  0
   38.1210   36.3390   17.6490 C   0  0  0  0  0  0  0  0  0  0  0  0
   37.3430   35.9730   18.7530 C   0  0  0  0  0  0  0  0  0  0  0  0
   34.4480   37.2780   23.0120 C   0  0  0  0  0  0  0  0  0  0  0  0
   34.6850   39.3850   21.8260 C   0  0  0  0  0  0  0  0  0  0  0  0
   34.9580   35.8880   20.6140 C   0  0  0  0  0  0  0  0  0  0  0  0
   36.0390   35.5160   18.5440 C   0  0  0  0  0  0  0  0  0  0  0  0
   34.2890   34.9320   17.0930 F   0  0  0  0  0  0  0  0  0  0  0  0
   35.2100   35.0140   19.5560 O   0  0  0  0  0  0  0  0  0  0  0  0
   34.4790   40.0730   22.9520 N   0  0  0  0  0  0  0  0  0  0  0  0
   34.2930   33.9170   21.8020 O   0  0  0  0  0  0  0  0  0  0  0  0
   34.3830   35.8700   23.0180 N   0  0  0  0  0  0  0  0  0  0  0  0
   34.2450   37.9570   24.1920 N   0  0  0  0  0  0  0  0  0  0  0  0
   34.3040   40.1090   25.2850 N   0  0  0  0  0  0  0  0  0  0  0  0
   35.8550   35.7490   15.1110 H   0  0  0  0  0  0  0  0  0  0  0  0
   35.2990   37.8100   19.6980 H   0  0  0  0  0  0  0  0  0  0  0  0
   39.1440   36.7020   17.7860 H   0  0  0  0  0  0  0  0  0  0  0  0
   37.7500   36.0690   19.7620 H   0  0  0  0  0  0  0  0  0  0  0  0
   34.8260   39.9630   20.8950 H   0  0  0  0  0  0  0  0  0  0  0  0
   34.2110   41.1420   25.1470 H   0  0  0  0  0  0  0  0  0  0  0  0
   38.2700   36.7080   15.3380 F   0  0  0  0  0  0  0  0  0  0  0  0
   34.3180   38.3070   28.6950 C   0  0  0  0  0  0  0  0  0  0  0  0
   34.7360   38.5450   27.2360 C   0  0  0  0  0  0  0  0  0  0  0  0
   33.9230   39.7210   26.6740 C   0  0  0  0  0  0  0  0  0  0  0  0
   32.4110   39.4420   26.8110 C   0  0  0  0  0  0  0  0  0  0  0  0
   32.0970   39.1800   28.2910 C   0  0  0  0  0  0  0  0  0  0  0  0
   32.8930   38.0990   28.8270 O   0  0  0  0  0  0  0  0  0  0  0  0
   34.6190   39.1650   29.3400 H   0  0  0  0  0  0  0  0  0  0  0  0
   34.7350   37.3450   29.0750 H   0  0  0  0  0  0  0  0  0  0  0  0
   34.5540   37.6210   26.6350 H   0  0  0  0  0  0  0  0  0  0  0  0
   35.8260   38.7800   27.1900 H   0  0  0  0  0  0  0  0  0  0  0  0
   34.1750   40.6480   27.2780 H   0  0  0  0  0  0  0  0  0  0  0  0
   31.8310   40.3240   26.4530 H   0  0  0  0  0  0  0  0  0  0  0  0
   32.1310   38.5560   26.1940 H   0  0  0  0  0  0  0  0  0  0  0  0
   32.2810   40.0970   28.8990 H   0  0  0  0  0  0  0  0  0  0  0  0
   31.0590   38.7970   28.4250 H   0  0  0  0  0  0  0  0  0  0  0  0
   34.1460   35.1150   24.3000 C   0  0  0  0  0  0  0  0  0  0  0  0
   34.6240   34.1040   24.1670 H   0  0  0  0  0  0  0  0  0  0  0  0
   34.6800   35.6610   25.1310 H   0  0  0  0  0  0  0  0  0  0  0  0
   32.6550   34.9930   24.6130 C   0  0  0  0  0  0  0  0  0  0  0  0
   32.2940   36.0080   24.9480 H   0  0  0  0  0  0  0  0  0  0  0  0
   32.0960   34.7730   23.6620 H   0  0  0  0  0  0  0  0  0  0  0  0
   32.1860   33.7860   25.8290 S   0  0  0  0  0  0  0  0  0  0  0  0
   31.3580   32.7560   25.1550 O   0  0  0  0  0  0  0  0  0  0  0  0
   31.4350   34.4440   26.9160 O   0  0  0  0  0  0  0  0  0  0  0  0
   33.6210   33.0540   26.4720 C   0  0  0  0  0  0  0  0  0  0  0  0
   34.3820   33.8050   26.8170 H   0  0  0  0  0  0  0  0  0  0  0  0
   33.3900   32.4290   27.3770 H   0  0  0  0  0  0  0  0  0  0  0  0
   34.1350   32.3680   25.7530 H   0  0  0  0  0  0  0  0  0  0  0  0
  1  3  2  0  0  0  0
  1  7  1  0  0  0  0
  1 21  1  0  0  0  0
  2 12  1  0  0  0  0
  2 17  2  0  0  0  0
  2 18  1  0  0  0  0
  3 13  1  0  0  0  0
  3 14  1  0  0  0  0
  4 16  2  0  0  0  0
  4 19  1  0  0  0  0
  4 20  1  0  0  0  0
  5  6  1  0  0  0  0
  5 10  1  0  0  0  0
  5 11  2  0  0  0  0
  6 12  2  0  0  0  0
  6 22  1  0  0  0  0
  7  8  2  0  0  0  0
  7 27  1  0  0  0  0
  8  9  1  0  0  0  0
  8 23  1  0  0  0  0
  9 13  2  0  0  0  0
  9 24  1  0  0  0  0
 10 18  1  0  0  0  0
 10 19  2  0  0  0  0
 11 16  1  0  0  0  0
 11 25  1  0  0  0  0
 12 15  1  0  0  0  0
 13 15  1  0  0  0  0
 18 43  1  0  0  0  0
 20 26  1  0  0  0  0
 20 30  1  0  0  0  0
 28 29  1  0  0  0  0
 28 33  1  0  0  0  0
 28 34  1  0  0  0  0
 28 35  1  0  0  0  0
 29 30  1  0  0  0  0
 29 36  1  0  0  0  0
 29 37  1  0  0  0  0
 30 31  1  0  0  0  0
 30 38  1  0  0  0  0
 31 32  1  0  0  0  0
 31 39  1  0  0  0  0
 31 40  1  0  0  0  0
 32 33  1  0  0  0  0
 32 41  1  0  0  0  0
 32 42  1  0  0  0  0
 43 44  1  0  0  0  0
 43 45  1  0  0  0  0
 43 46  1  0  0  0  0
 46 47  1  0  0  0  0
 46 48  1  0  0  0  0
 46 49  1  0  0  0  0
 49 50  2  0  0  0  0
 49 51  2  0  0  0  0
 49 52  1  0  0  0  0
 52 53  1  0  0  0  0
 52 54  1  0  0  0  0
 52 55  1  0  0  0  0
M  END
$$$$
