17
 OpenBabel02232411153D
Structure written by MMmdl.
 45 48  0  0  0  0  0  0  0  0999 V2000
    1.9070   28.9350    6.7070 C   0  0  0  0  0  0  0  0  0  0  0  0
   -1.5660   31.5020    7.9510 C   0  0  0  0  0  0  0  0  0  0  0  0
    0.0030   26.0510    8.8930 C   0  0  0  0  0  0  0  0  0  0  0  0
   -0.8340   25.3350    9.9600 C   0  0  0  0  0  0  0  0  0  0  0  0
   -0.6130   23.8160    9.7820 C   0  0  0  0  0  0  0  0  0  0  0  0
   -1.3410   23.0170   10.8730 C   0  0  0  0  0  0  0  0  0  0  0  0
   -0.9370   23.4830   12.2810 C   0  0  0  0  0  0  0  0  0  0  0  0
   -1.1660   24.9930   12.4590 C   0  0  0  0  0  0  0  0  0  0  0  0
   -0.4400   25.8020   11.3740 C   0  0  0  0  0  0  0  0  0  0  0  0
    5.4590   25.7700    5.4400 C   0  0  0  0  0  0  0  0  0  0  0  0
    5.2580   24.9160    6.5320 C   0  0  0  0  0  0  0  0  0  0  0  0
    4.3670   25.3170    7.5230 C   0  0  0  0  0  0  0  0  0  0  0  0
    3.6740   26.5260    7.4740 C   0  0  0  0  0  0  0  0  0  0  0  0
    1.2150   27.9720    7.4370 N   0  0  0  0  0  0  0  0  0  0  0  0
    0.0240   28.2890    8.0090 C   0  0  0  0  0  0  0  0  0  0  0  0
   -0.6360   27.3860    8.7470 O   0  0  0  0  0  0  0  0  0  0  0  0
   -0.5150   29.5940    7.8490 C   0  0  0  0  0  0  0  0  0  0  0  0
   -1.6590   30.2290    8.3450 N   0  0  0  0  0  0  0  0  0  0  0  0
   -0.3640   31.7530    7.1980 N   0  0  0  0  0  0  0  0  0  0  0  0
    0.3030   30.5360    7.1030 C   0  0  0  0  0  0  0  0  0  0  0  0
    1.4930   30.2370    6.4870 N   0  0  0  0  0  0  0  0  0  0  0  0
    3.1240   28.5620    6.1420 N   0  0  0  0  0  0  0  0  0  0  0  0
    3.8290   27.3360    6.3360 C   0  0  0  0  0  0  0  0  0  0  0  0
    4.7530   26.9650    5.3330 C   0  0  0  0  0  0  0  0  0  0  0  0
   -2.2690   32.3010    8.1660 H   0  0  0  0  0  0  0  0  0  0  0  0
    1.0560   26.1920    9.2230 H   0  0  0  0  0  0  0  0  0  0  0  0
   -0.0680   25.5670    7.8990 H   0  0  0  0  0  0  0  0  0  0  0  0
   -1.9160   25.5630    9.8070 H   0  0  0  0  0  0  0  0  0  0  0  0
   -0.9910   23.4990    8.7850 H   0  0  0  0  0  0  0  0  0  0  0  0
    0.4810   23.5920    9.8380 H   0  0  0  0  0  0  0  0  0  0  0  0
   -2.4380   23.1500   10.7510 H   0  0  0  0  0  0  0  0  0  0  0  0
   -1.0960   21.9350   10.7650 H   0  0  0  0  0  0  0  0  0  0  0  0
   -1.5350   22.9260   13.0390 H   0  0  0  0  0  0  0  0  0  0  0  0
    0.1420   23.2580   12.4450 H   0  0  0  0  0  0  0  0  0  0  0  0
   -2.2580   25.2080   12.4300 H   0  0  0  0  0  0  0  0  0  0  0  0
   -0.7760   25.3030   13.4580 H   0  0  0  0  0  0  0  0  0  0  0  0
    0.6610   25.6760   11.5190 H   0  0  0  0  0  0  0  0  0  0  0  0
   -0.6900   26.8810   11.4930 H   0  0  0  0  0  0  0  0  0  0  0  0
    6.1740   25.4940    4.6570 H   0  0  0  0  0  0  0  0  0  0  0  0
    5.7950   23.9660    6.5830 H   0  0  0  0  0  0  0  0  0  0  0  0
    3.0150   26.8210    8.2980 H   0  0  0  0  0  0  0  0  0  0  0  0
   -0.1100   32.6410    6.7420 H   0  0  0  0  0  0  0  0  0  0  0  0
    3.6060   29.2430    5.5050 H   0  0  0  0  0  0  0  0  0  0  0  0
    4.9240   27.6120    4.4720 H   0  0  0  0  0  0  0  0  0  0  0  0
    4.0500   24.1830    9.0300 Br  0  0  0  0  0  0  0  0  0  0  0  0
  1 14  2  0  0  0  0
  1 21  1  0  0  0  0
  1 22  1  0  0  0  0
  2 18  2  0  0  0  0
  2 19  1  0  0  0  0
  2 25  1  0  0  0  0
  3  4  1  0  0  0  0
  3 16  1  0  0  0  0
  3 26  1  0  0  0  0
  3 27  1  0  0  0  0
  4  5  1  0  0  0  0
  4  9  1  0  0  0  0
  4 28  1  0  0  0  0
  5  6  1  0  0  0  0
  5 29  1  0  0  0  0
  5 30  1  0  0  0  0
  6  7  1  0  0  0  0
  6 31  1  0  0  0  0
  6 32  1  0  0  0  0
  7  8  1  0  0  0  0
  7 33  1  0  0  0  0
  7 34  1  0  0  0  0
  8  9  1  0  0  0  0
  8 35  1  0  0  0  0
  8 36  1  0  0  0  0
  9 37  1  0  0  0  0
  9 38  1  0  0  0  0
 10 11  2  0  0  0  0
 10 24  1  0  0  0  0
 10 39  1  0  0  0  0
 11 12  1  0  0  0  0
 11 40  1  0  0  0  0
 12 13  2  0  0  0  0
 12 45  1  0  0  0  0
 13 23  1  0  0  0  0
 13 41  1  0  0  0  0
 14 15  1  0  0  0  0
 15 16  1  0  0  0  0
 15 17  2  0  0  0  0
 17 18  1  0  0  0  0
 17 20  1  0  0  0  0
 19 20  1  0  0  0  0
 19 42  1  0  0  0  0
 20 21  2  0  0  0  0
 22 23  1  0  0  0  0
 22 43  1  0  0  0  0
 23 24  2  0  0  0  0
 24 44  1  0  0  0  0
M  END
$$$$
