CAT-17i
 OpenBabel02232411143D
Structure written by MMmdl.
 45 48  0  0  1  0  0  0  0  0999 V2000
   15.1660    4.3750    0.9230 C   0  0  0  0  0  0  0  0  0  0  0  0
   15.1110    3.9250   -0.4990 C   0  0  0  0  0  0  0  0  0  0  0  0
   14.6550    4.7730   -1.5360 C   0  0  0  0  0  0  0  0  0  0  0  0
   14.5810    4.3790   -2.8300 N   0  0  0  0  0  0  0  0  0  0  0  0
   14.9220    3.1030   -3.1480 C   0  0  0  0  0  0  0  0  0  0  0  0
   15.3460    2.1770   -2.1730 C   0  0  0  0  0  0  0  0  0  0  0  0
   15.6210    0.7630   -2.4930 C   0  0  0  0  0  0  0  0  0  0  0  0
   16.3980    0.3780   -3.5990 C   0  0  0  0  0  0  0  0  0  0  0  0
   16.7040   -0.9690   -3.8040 C   0  0  0  0  0  0  0  0  0  0  0  0
   16.2280   -1.9540   -2.9310 C   0  0  0  0  0  0  0  0  0  0  0  0
   15.4040   -1.5840   -1.8620 C   0  0  0  0  0  0  0  0  0  0  0  0
   14.8150   -2.6090   -0.9170 C   0  0  1  0  0  0  0  0  0  0  0  0
   15.0520   -4.0650   -1.2870 C   0  0  0  0  0  0  0  0  0  0  0  0
   16.2880   -4.7980   -0.7950 C   0  0  0  0  0  0  0  0  0  0  0  0
   14.9300   -5.1680   -0.2410 C   0  0  0  0  0  0  0  0  0  0  0  0
   15.2510   -2.2880    0.4950 N   0  3  0  0  0  0  0  0  0  0  0  0
   14.1560   -2.3680    1.3660 C   0  0  0  0  0  0  0  0  0  0  0  0
   14.2950   -2.4780    2.7210 N   0  0  0  0  0  0  0  0  0  0  0  0
   12.9700   -2.3680    0.6360 N   0  0  0  0  0  0  0  0  0  0  0  0
   11.6320   -2.5200    1.2450 C   0  0  0  0  0  0  0  0  0  0  0  0
   13.2610   -2.4460   -0.8140 C   0  0  0  0  0  0  0  0  0  0  0  0
   12.4020   -2.3860   -1.6330 O   0  0  0  0  0  0  0  0  0  0  0  0
   15.1010   -0.2320   -1.6500 C   0  0  0  0  0  0  0  0  0  0  0  0
   15.4680    2.6180   -0.8450 C   0  0  0  0  0  0  0  0  0  0  0  0
   14.2850    3.9590    1.4710 H   0  0  0  0  0  0  0  0  0  0  0  0
   16.0860    3.9900    1.4290 H   0  0  0  0  0  0  0  0  0  0  0  0
   15.1460    5.4860    1.0140 H   0  0  0  0  0  0  0  0  0  0  0  0
   14.3250    5.8000   -1.3150 H   0  0  0  0  0  0  0  0  0  0  0  0
   14.8360    2.8130   -4.2070 H   0  0  0  0  0  0  0  0  0  0  0  0
   16.7740    1.1270   -4.3010 H   0  0  0  0  0  0  0  0  0  0  0  0
   17.3340   -1.2610   -4.6510 H   0  0  0  0  0  0  0  0  0  0  0  0
   16.5030   -2.9990   -3.0830 H   0  0  0  0  0  0  0  0  0  0  0  0
   14.6930   -4.2950   -2.3060 H   0  0  0  0  0  0  0  0  0  0  0  0
   16.8130   -5.4620   -1.4810 H   0  0  0  0  0  0  0  0  0  0  0  0
   17.0000   -4.2720   -0.1560 H   0  0  0  0  0  0  0  0  0  0  0  0
   14.6970   -4.9070    0.7980 H   0  0  0  0  0  0  0  0  0  0  0  0
   14.4580   -6.1130   -0.5390 H   0  0  0  0  0  0  0  0  0  0  0  0
   16.1860   -2.6160    0.8610 H   0  0  0  0  0  0  0  0  0  0  0  0
   13.5730   -2.0900    3.3780 H   0  0  0  0  0  0  0  0  0  0  0  0
   10.8900   -1.9120    0.6610 H   0  0  0  0  0  0  0  0  0  0  0  0
   11.3350   -3.6040    1.2380 H   0  0  0  0  0  0  0  0  0  0  0  0
   11.6420   -2.1550    2.3020 H   0  0  0  0  0  0  0  0  0  0  0  0
   14.4620    0.0430   -0.8130 H   0  0  0  0  0  0  0  0  0  0  0  0
   15.8310    1.9280   -0.0790 H   0  0  0  0  0  0  0  0  0  0  0  0
   15.2720   -2.3920    3.1250 H   0  0  0  0  0  0  0  0  0  0  0  0
  1  2  1  0  0  0  0
  1 25  1  0  0  0  0
  1 26  1  0  0  0  0
  1 27  1  0  0  0  0
  2  3  2  0  0  0  0
  2 24  1  0  0  0  0
  3  4  1  0  0  0  0
  3 28  1  0  0  0  0
  4  5  2  0  0  0  0
  5  6  1  0  0  0  0
  5 29  1  0  0  0  0
  6  7  1  0  0  0  0
  6 24  2  0  0  0  0
  7  8  2  0  0  0  0
  7 23  1  0  0  0  0
  8  9  1  0  0  0  0
  8 30  1  0  0  0  0
  9 10  2  0  0  0  0
  9 31  1  0  0  0  0
 10 11  1  0  0  0  0
 10 32  1  0  0  0  0
 11 23  2  0  0  0  0
 12 11  1  6  0  0  0
 12 13  1  0  0  0  0
 12 16  1  0  0  0  0
 12 21  1  0  0  0  0
 13 14  1  0  0  0  0
 13 15  1  0  0  0  0
 13 33  1  0  0  0  0
 14 15  1  0  0  0  0
 14 34  1  0  0  0  0
 14 35  1  0  0  0  0
 15 36  1  0  0  0  0
 15 37  1  0  0  0  0
 16 17  2  0  0  0  0
 16 38  1  0  0  0  0
 17 18  1  0  0  0  0
 17 19  1  0  0  0  0
 18 39  1  0  0  0  0
 18 45  1  0  0  0  0
 19 20  1  0  0  0  0
 19 21  1  0  0  0  0
 20 40  1  0  0  0  0
 20 41  1  0  0  0  0
 20 42  1  0  0  0  0
 21 22  2  0  0  0  0
 23 43  1  0  0  0  0
 24 44  1  0  0  0  0
M  CHG  1  16   1
M  END
$$$$
