p38a_2gg
 OpenBabel02232411163D
Structure written by MMmdl.
 48 51  0  0  0  0  0  0  0  0999 V2000
   36.3470   35.9040   15.9560 C   0  0  0  0  0  0  0  0  0  0  0  0
   34.4830   35.0590   21.5500 C   0  0  0  0  0  0  0  0  0  0  0  0
   35.6140   35.4800   17.0600 C   0  0  0  0  0  0  0  0  0  0  0  0
   34.2390   39.1990   24.0380 C   0  0  0  0  0  0  0  0  0  0  0  0
   34.7130   37.9240   21.6390 C   0  0  0  0  0  0  0  0  0  0  0  0
   35.0730   37.2280   20.4330 C   0  0  0  0  0  0  0  0  0  0  0  0
   37.6330   36.3980   16.2120 C   0  0  0  0  0  0  0  0  0  0  0  0
   38.2040   36.4360   17.4880 C   0  0  0  0  0  0  0  0  0  0  0  0
   37.4350   36.0340   18.5850 C   0  0  0  0  0  0  0  0  0  0  0  0
   34.3720   37.1940   22.8170 C   0  0  0  0  0  0  0  0  0  0  0  0
   34.6940   39.3400   21.7380 C   0  0  0  0  0  0  0  0  0  0  0  0
   35.0000   35.8770   20.4180 C   0  0  0  0  0  0  0  0  0  0  0  0
   36.1380   35.5610   18.3670 C   0  0  0  0  0  0  0  0  0  0  0  0
   33.9330   35.0550   24.0180 C   0  0  0  0  0  0  0  0  0  0  0  0
   34.3990   34.9710   16.9070 F   0  0  0  0  0  0  0  0  0  0  0  0
   35.3220   35.0190   19.3680 O   0  0  0  0  0  0  0  0  0  0  0  0
   34.4530   39.9860   22.8880 N   0  0  0  0  0  0  0  0  0  0  0  0
   34.2420   33.8740   21.5070 O   0  0  0  0  0  0  0  0  0  0  0  0
   34.2590   35.7970   22.7670 N   0  0  0  0  0  0  0  0  0  0  0  0
   34.1340   37.8270   24.0150 N   0  0  0  0  0  0  0  0  0  0  0  0
   34.2090   39.8940   25.2330 N   0  0  0  0  0  0  0  0  0  0  0  0
   35.9350   35.8830   14.9440 H   0  0  0  0  0  0  0  0  0  0  0  0
   35.4130   37.8210   19.5800 H   0  0  0  0  0  0  0  0  0  0  0  0
   39.2240   36.8030   17.6290 H   0  0  0  0  0  0  0  0  0  0  0  0
   37.8440   36.1150   19.5940 H   0  0  0  0  0  0  0  0  0  0  0  0
   34.8730   39.9590   20.8420 H   0  0  0  0  0  0  0  0  0  0  0  0
   34.7580   35.2000   24.7670 H   0  0  0  0  0  0  0  0  0  0  0  0
   32.9790   35.4520   24.4610 H   0  0  0  0  0  0  0  0  0  0  0  0
   33.8140   33.9620   23.8010 H   0  0  0  0  0  0  0  0  0  0  0  0
   34.0760   40.9270   25.1860 H   0  0  0  0  0  0  0  0  0  0  0  0
   38.3300   36.8880   15.1900 F   0  0  0  0  0  0  0  0  0  0  0  0
   34.4960   37.7700   28.4270 C   0  0  0  0  0  0  0  0  0  0  0  0
   34.6520   38.0920   26.9410 C   0  0  0  0  0  0  0  0  0  0  0  0
   33.8460   39.3540   26.5730 C   0  0  0  0  0  0  0  0  0  0  0  0
   32.3210   39.1190   26.7100 C   0  0  0  0  0  0  0  0  0  0  0  0
   31.9460   38.9060   28.1770 C   0  0  0  0  0  0  0  0  0  0  0  0
   34.9550   38.6040   29.0260 H   0  0  0  0  0  0  0  0  0  0  0  0
   35.0930   36.8490   28.6600 H   0  0  0  0  0  0  0  0  0  0  0  0
   34.3250   37.2220   26.3170 H   0  0  0  0  0  0  0  0  0  0  0  0
   35.7320   38.2880   26.7200 H   0  0  0  0  0  0  0  0  0  0  0  0
   34.1420   40.1860   27.2850 H   0  0  0  0  0  0  0  0  0  0  0  0
   31.7860   40.0260   26.3270 H   0  0  0  0  0  0  0  0  0  0  0  0
   32.0100   38.2480   26.0830 H   0  0  0  0  0  0  0  0  0  0  0  0
   32.1830   39.8480   28.7450 H   0  0  0  0  0  0  0  0  0  0  0  0
   30.8390   38.7530   28.2540 H   0  0  0  0  0  0  0  0  0  0  0  0
   32.8160   37.5500   28.8900 S   0  0  0  0  0  0  0  0  0  0  0  0
   32.2870   36.2610   28.3900 O   0  0  0  0  0  0  0  0  0  0  0  0
   32.7000   37.5970   30.3750 O   0  0  0  0  0  0  0  0  0  0  0  0
  1  3  2  0  0  0  0
  1  7  1  0  0  0  0
  1 22  1  0  0  0  0
  2 12  1  0  0  0  0
  2 18  2  0  0  0  0
  2 19  1  0  0  0  0
  3 13  1  0  0  0  0
  3 15  1  0  0  0  0
  4 17  2  0  0  0  0
  4 20  1  0  0  0  0
  4 21  1  0  0  0  0
  5  6  1  0  0  0  0
  5 10  1  0  0  0  0
  5 11  2  0  0  0  0
  6 12  2  0  0  0  0
  6 23  1  0  0  0  0
  7  8  2  0  0  0  0
  7 31  1  0  0  0  0
  8  9  1  0  0  0  0
  8 24  1  0  0  0  0
  9 13  2  0  0  0  0
  9 25  1  0  0  0  0
 10 19  1  0  0  0  0
 10 20  2  0  0  0  0
 11 17  1  0  0  0  0
 11 26  1  0  0  0  0
 12 16  1  0  0  0  0
 13 16  1  0  0  0  0
 14 19  1  0  0  0  0
 14 27  1  0  0  0  0
 14 28  1  0  0  0  0
 14 29  1  0  0  0  0
 21 30  1  0  0  0  0
 21 34  1  0  0  0  0
 32 33  1  0  0  0  0
 32 37  1  0  0  0  0
 32 38  1  0  0  0  0
 32 46  1  0  0  0  0
 33 34  1  0  0  0  0
 33 39  1  0  0  0  0
 33 40  1  0  0  0  0
 34 35  1  0  0  0  0
 34 41  1  0  0  0  0
 35 36  1  0  0  0  0
 35 42  1  0  0  0  0
 35 43  1  0  0  0  0
 36 44  1  0  0  0  0
 36 45  1  0  0  0  0
 36 46  1  0  0  0  0
 46 47  2  0  0  0  0
 46 48  2  0  0  0  0
M  END
$$$$
