18652-1
 OpenBabel02232411163D
Structure written by MMmdl.
 55 56  0  0  0  0  0  0  0  0999 V2000
   24.6250   10.2990   30.7880 C   0  0  0  0  0  0  0  0  0  0  0  0
   23.4260   10.9730   30.1490 C   0  0  0  0  0  0  0  0  0  0  0  0
   23.0260   10.3830   28.8090 C   0  0  0  0  0  0  0  0  0  0  0  0
   22.2730   11.0090   31.0930 O   0  0  0  0  0  0  0  0  0  0  0  0
   21.6520    9.8910   31.5160 C   0  0  0  0  0  0  0  0  0  0  0  0
   22.0960    8.6710   31.1290 N   0  0  0  0  0  0  0  0  0  0  0  0
   21.3650    7.5650   31.5210 C   0  0  0  0  0  0  0  0  0  0  0  0
   20.2180    7.6560   32.3040 C   0  0  0  0  0  0  0  0  0  0  0  0
   19.7620    8.9360   32.7200 C   0  0  0  0  0  0  0  0  0  0  0  0
   18.6060    9.0300   33.4560 N   0  0  0  0  0  0  0  0  0  0  0  0
   20.5040   10.1000   32.3430 C   0  0  0  0  0  0  0  0  0  0  0  0
   20.1480   11.4160   32.7080 C   0  0  0  0  0  0  0  0  0  0  0  0
   19.9030   12.5170   32.9770 N   0  0  0  0  0  0  0  0  0  0  0  0
   21.9120    6.3610   31.0080 N   0  0  0  0  0  0  0  0  0  0  0  0
   21.2230    5.1330   30.9270 C   0  0  0  0  0  0  0  0  0  0  0  0
   20.1460    4.9510   31.4540 O   0  0  0  0  0  0  0  0  0  0  0  0
   21.8960    4.0960   30.0450 C   0  0  0  0  0  0  0  0  0  0  0  0
   23.2650    3.6550   30.4690 C   0  0  0  0  0  0  0  0  0  0  0  0
   24.4190    4.3340   29.9740 C   0  0  0  0  0  0  0  0  0  0  0  0
   24.1030    5.4720   29.2350 O   0  0  0  0  0  0  0  0  0  0  0  0
   25.1640    6.4510   29.0620 C   0  0  0  0  0  0  0  0  0  0  0  0
   25.6960    3.8270   30.1720 C   0  0  0  0  0  0  0  0  0  0  0  0
   25.8890    2.6610   30.9390 C   0  0  0  0  0  0  0  0  0  0  0  0
   27.5170    2.0250   31.0440 S   0  0  0  0  0  0  0  0  0  0  0  0
   27.5150    0.8860   31.9940 O   0  0  0  0  0  0  0  0  0  0  0  0
   28.4540    3.0820   31.4950 O   0  0  0  0  0  0  0  0  0  0  0  0
   27.8870    1.4940   29.4330 C   0  0  0  0  0  0  0  0  0  0  0  0
   24.7680    2.0570   31.5250 C   0  0  0  0  0  0  0  0  0  0  0  0
   23.4550    2.5350   31.2600 C   0  0  0  0  0  0  0  0  0  0  0  0
   25.0390    1.0080   32.3610 O   0  0  0  0  0  0  0  0  0  0  0  0
   23.9160    0.2270   32.8670 C   0  0  0  0  0  0  0  0  0  0  0  0
   24.8170   10.7080   31.7990 H   0  0  0  0  0  0  0  0  0  0  0  0
   24.4780    9.1940   30.8660 H   0  0  0  0  0  0  0  0  0  0  0  0
   25.5280   10.4710   30.1500 H   0  0  0  0  0  0  0  0  0  0  0  0
   23.5690   12.0840   30.0770 H   0  0  0  0  0  0  0  0  0  0  0  0
   22.1560   10.9210   28.3780 H   0  0  0  0  0  0  0  0  0  0  0  0
   23.8820   10.4900   28.0980 H   0  0  0  0  0  0  0  0  0  0  0  0
   22.7790    9.2990   28.8920 H   0  0  0  0  0  0  0  0  0  0  0  0
   19.6520    6.7660   32.5860 H   0  0  0  0  0  0  0  0  0  0  0  0
   18.0850    8.1790   33.7420 H   0  0  0  0  0  0  0  0  0  0  0  0
   18.2260    9.9330   33.7390 H   0  0  0  0  0  0  0  0  0  0  0  0
   22.8200    6.4520   30.4980 H   0  0  0  0  0  0  0  0  0  0  0  0
   21.2310    3.1940   29.9910 H   0  0  0  0  0  0  0  0  0  0  0  0
   21.9690    4.5440   29.0120 H   0  0  0  0  0  0  0  0  0  0  0  0
   25.8720    6.0840   28.2870 H   0  0  0  0  0  0  0  0  0  0  0  0
   24.5970    7.3420   28.7090 H   0  0  0  0  0  0  0  0  0  0  0  0
   25.6730    6.6510   30.0290 H   0  0  0  0  0  0  0  0  0  0  0  0
   26.5540    4.3300   29.7100 H   0  0  0  0  0  0  0  0  0  0  0  0
   27.9060    2.3420   28.6970 H   0  0  0  0  0  0  0  0  0  0  0  0
   28.8870    0.9930   29.3620 H   0  0  0  0  0  0  0  0  0  0  0  0
   27.1320    0.7630   29.0430 H   0  0  0  0  0  0  0  0  0  0  0  0
   22.5890    2.0040   31.6560 H   0  0  0  0  0  0  0  0  0  0  0  0
   23.2760    0.8490   33.5280 H   0  0  0  0  0  0  0  0  0  0  0  0
   23.3500   -0.2180   32.0200 H   0  0  0  0  0  0  0  0  0  0  0  0
   24.4400   -0.5670   33.4520 H   0  0  0  0  0  0  0  0  0  0  0  0
  1  2  1  0  0  0  0
  1 32  1  0  0  0  0
  1 33  1  0  0  0  0
  1 34  1  0  0  0  0
  2  3  1  0  0  0  0
  2  4  1  0  0  0  0
  2 35  1  0  0  0  0
  3 36  1  0  0  0  0
  3 37  1  0  0  0  0
  3 38  1  0  0  0  0
  4  5  1  0  0  0  0
  5 11  2  0  0  0  0
  5  6  1  0  0  0  0
  6  7  2  0  0  0  0
  7  8  1  0  0  0  0
  7 14  1  0  0  0  0
  8  9  2  0  0  0  0
  8 39  1  0  0  0  0
  9 10  1  0  0  0  0
  9 11  1  0  0  0  0
 10 40  1  0  0  0  0
 10 41  1  0  0  0  0
 11 12  1  0  0  0  0
 12 13  3  0  0  0  0
 14 15  1  0  0  0  0
 14 42  1  0  0  0  0
 15 16  2  0  0  0  0
 15 17  1  0  0  0  0
 17 18  1  0  0  0  0
 17 43  1  0  0  0  0
 17 44  1  0  0  0  0
 18 29  2  0  0  0  0
 18 19  1  0  0  0  0
 19 20  1  0  0  0  0
 19 22  2  0  0  0  0
 20 21  1  0  0  0  0
 21 45  1  0  0  0  0
 21 46  1  0  0  0  0
 21 47  1  0  0  0  0
 22 23  1  0  0  0  0
 22 48  1  0  0  0  0
 23 24  1  0  0  0  0
 23 28  2  0  0  0  0
 24 25  2  0  0  0  0
 24 26  2  0  0  0  0
 24 27  1  0  0  0  0
 27 49  1  0  0  0  0
 27 50  1  0  0  0  0
 27 51  1  0  0  0  0
 28 29  1  0  0  0  0
 28 30  1  0  0  0  0
 29 52  1  0  0  0  0
 30 31  1  0  0  0  0
 31 53  1  0  0  0  0
 31 54  1  0  0  0  0
 31 55  1  0  0  0  0
M  END
$$$$
