p38a_2l
 OpenBabel02232411163D
Structure written by MMmdl.
 49 52  0  0  0  0  0  0  0  0999 V2000
   36.3620   35.9960   15.8760 C   0  0  0  0  0  0  0  0  0  0  0  0
   34.5340   34.9770   21.4330 C   0  0  0  0  0  0  0  0  0  0  0  0
   35.6630   35.5450   16.9910 C   0  0  0  0  0  0  0  0  0  0  0  0
   34.1340   39.0110   24.0760 C   0  0  0  0  0  0  0  0  0  0  0  0
   34.8010   37.8310   21.6710 C   0  0  0  0  0  0  0  0  0  0  0  0
   35.2040   37.1870   20.4490 C   0  0  0  0  0  0  0  0  0  0  0  0
   37.6530   36.4870   16.1060 C   0  0  0  0  0  0  0  0  0  0  0  0
   38.2590   36.5010   17.3650 C   0  0  0  0  0  0  0  0  0  0  0  0
   37.5240   36.0740   18.4760 C   0  0  0  0  0  0  0  0  0  0  0  0
   34.3760   37.0500   22.7880 C   0  0  0  0  0  0  0  0  0  0  0  0
   34.8200   39.2410   21.8440 C   0  0  0  0  0  0  0  0  0  0  0  0
   35.1010   35.8420   20.3620 C   0  0  0  0  0  0  0  0  0  0  0  0
   36.2230   35.5990   18.2850 C   0  0  0  0  0  0  0  0  0  0  0  0
   34.4460   35.0320   16.8620 F   0  0  0  0  0  0  0  0  0  0  0  0
   35.4410   35.0200   19.2890 O   0  0  0  0  0  0  0  0  0  0  0  0
   34.5000   39.8450   22.9990 N   0  0  0  0  0  0  0  0  0  0  0  0
   34.2900   33.7960   21.3160 O   0  0  0  0  0  0  0  0  0  0  0  0
   34.2460   35.6550   22.6700 N   0  0  0  0  0  0  0  0  0  0  0  0
   34.0540   37.6330   23.9870 N   0  0  0  0  0  0  0  0  0  0  0  0
   33.8310   39.6100   25.2730 N   0  0  0  0  0  0  0  0  0  0  0  0
   35.9190   35.9920   14.8770 H   0  0  0  0  0  0  0  0  0  0  0  0
   35.5890   37.8130   19.6400 H   0  0  0  0  0  0  0  0  0  0  0  0
   39.2830   36.8670   17.4870 H   0  0  0  0  0  0  0  0  0  0  0  0
   37.9640   36.1350   19.4740 H   0  0  0  0  0  0  0  0  0  0  0  0
   35.1020   39.8910   20.9990 H   0  0  0  0  0  0  0  0  0  0  0  0
   33.8750   40.6420   25.3590 H   0  0  0  0  0  0  0  0  0  0  0  0
   38.3200   36.9970   15.0720 F   0  0  0  0  0  0  0  0  0  0  0  0
   33.4630   40.6310   28.2970 C   0  0  0  0  0  0  0  0  0  0  0  0
   32.5640   39.7700   27.4000 C   0  0  0  0  0  0  0  0  0  0  0  0
   33.3520   38.8330   26.4620 C   0  0  0  0  0  0  0  0  0  0  0  0
   34.5190   38.1500   27.2060 C   0  0  0  0  0  0  0  0  0  0  0  0
   35.3290   39.1340   28.0510 C   0  0  0  0  0  0  0  0  0  0  0  0
   34.4760   39.8560   28.9710 O   0  0  0  0  0  0  0  0  0  0  0  0
   32.8840   41.0610   29.1460 H   0  0  0  0  0  0  0  0  0  0  0  0
   33.9660   41.4270   27.7040 H   0  0  0  0  0  0  0  0  0  0  0  0
   31.9080   40.4460   26.7980 H   0  0  0  0  0  0  0  0  0  0  0  0
   31.9030   39.1310   28.0380 H   0  0  0  0  0  0  0  0  0  0  0  0
   32.6490   38.0300   26.0900 H   0  0  0  0  0  0  0  0  0  0  0  0
   34.0810   37.3570   27.8640 H   0  0  0  0  0  0  0  0  0  0  0  0
   35.1940   37.6390   26.4760 H   0  0  0  0  0  0  0  0  0  0  0  0
   36.0200   38.6040   28.7450 H   0  0  0  0  0  0  0  0  0  0  0  0
   35.8660   39.8680   27.4090 H   0  0  0  0  0  0  0  0  0  0  0  0
   33.9470   34.8220   23.8860 C   0  0  0  0  0  0  0  0  0  0  0  0
   33.3260   35.4280   24.6050 H   0  0  0  0  0  0  0  0  0  0  0  0
   33.3490   33.9290   23.5600 H   0  0  0  0  0  0  0  0  0  0  0  0
   35.2360   34.3730   24.5730 C   0  0  0  0  0  0  0  0  0  0  0  0
   35.7860   33.6250   23.9650 H   0  0  0  0  0  0  0  0  0  0  0  0
   35.8960   35.2440   24.7840 H   0  0  0  0  0  0  0  0  0  0  0  0
   34.9740   33.9020   25.5540 H   0  0  0  0  0  0  0  0  0  0  0  0
  1  3  2  0  0  0  0
  1  7  1  0  0  0  0
  1 21  1  0  0  0  0
  2 12  1  0  0  0  0
  2 17  2  0  0  0  0
  2 18  1  0  0  0  0
  3 13  1  0  0  0  0
  3 14  1  0  0  0  0
  4 16  2  0  0  0  0
  4 19  1  0  0  0  0
  4 20  1  0  0  0  0
  5  6  1  0  0  0  0
  5 10  1  0  0  0  0
  5 11  2  0  0  0  0
  6 12  2  0  0  0  0
  6 22  1  0  0  0  0
  7  8  2  0  0  0  0
  7 27  1  0  0  0  0
  8  9  1  0  0  0  0
  8 23  1  0  0  0  0
  9 13  2  0  0  0  0
  9 24  1  0  0  0  0
 10 18  1  0  0  0  0
 10 19  2  0  0  0  0
 11 16  1  0  0  0  0
 11 25  1  0  0  0  0
 12 15  1  0  0  0  0
 13 15  1  0  0  0  0
 18 43  1  0  0  0  0
 20 26  1  0  0  0  0
 20 30  1  0  0  0  0
 28 29  1  0  0  0  0
 28 33  1  0  0  0  0
 28 34  1  0  0  0  0
 28 35  1  0  0  0  0
 29 30  1  0  0  0  0
 29 36  1  0  0  0  0
 29 37  1  0  0  0  0
 30 31  1  0  0  0  0
 30 38  1  0  0  0  0
 31 32  1  0  0  0  0
 31 39  1  0  0  0  0
 31 40  1  0  0  0  0
 32 33  1  0  0  0  0
 32 41  1  0  0  0  0
 32 42  1  0  0  0  0
 43 44  1  0  0  0  0
 43 45  1  0  0  0  0
 43 46  1  0  0  0  0
 46 47  1  0  0  0  0
 46 48  1  0  0  0  0
 46 49  1  0  0  0  0
M  END
$$$$
