p38a_3flq
 OpenBabel02232411163D
Structure written by MMmdl.
 47 49  0  0  1  0  0  0  0  0999 V2000
   33.6190   39.1200   23.7940 C   0  0  0  0  0  0  0  0  0  0  0  0
   34.5470   37.9630   21.4590 C   0  0  0  0  0  0  0  0  0  0  0  0
   35.0500   37.3230   20.2710 C   0  0  0  0  0  0  0  0  0  0  0  0
   33.9730   37.1840   22.5060 C   0  0  0  0  0  0  0  0  0  0  0  0
   34.9900   35.9750   20.1870 C   0  0  0  0  0  0  0  0  0  0  0  0
   32.1270   39.4080   25.8920 C   0  0  1  0  0  0  0  0  0  0  0  0
   31.6560   37.9620   25.8190 C   0  0  0  0  0  0  0  0  0  0  0  0
   35.2940   39.7360   27.3350 C   0  0  0  0  0  0  0  0  0  0  0  0
   33.8820   35.7890   22.3820 N   0  0  0  0  0  0  0  0  0  0  0  0
   32.4940   39.8430   27.3300 C   0  0  0  0  0  0  0  0  0  0  0  0
   38.3050   37.1600   14.9370 F   0  0  0  0  0  0  0  0  0  0  0  0
   37.6150   36.6820   15.9700 C   0  0  0  0  0  0  0  0  0  0  0  0
   36.2610   36.3920   15.7850 C   0  0  0  0  0  0  0  0  0  0  0  0
   35.5070   35.9440   16.8760 C   0  0  0  0  0  0  0  0  0  0  0  0
   38.2770   36.5330   17.1960 C   0  0  0  0  0  0  0  0  0  0  0  0
   37.5030   36.0960   18.2680 C   0  0  0  0  0  0  0  0  0  0  0  0
   38.0500   35.9640   19.4690 F   0  0  0  0  0  0  0  0  0  0  0  0
   36.1360   35.7860   18.1140 C   0  0  0  0  0  0  0  0  0  0  0  0
   35.4370   35.1580   19.1550 O   0  0  0  0  0  0  0  0  0  0  0  0
   34.3860   35.0950   21.2280 C   0  0  0  0  0  0  0  0  0  0  0  0
   34.3040   33.8880   21.1630 O   0  0  0  0  0  0  0  0  0  0  0  0
   34.5940   39.3660   21.6650 C   0  0  0  0  0  0  0  0  0  0  0  0
   34.1570   39.9510   22.7930 N   0  0  0  0  0  0  0  0  0  0  0  0
   33.5070   37.7590   23.6660 N   0  0  0  0  0  0  0  0  0  0  0  0
   33.2310   35.0080   23.4720 C   0  0  0  0  0  0  0  0  0  0  0  0
   33.2950   39.7510   24.9970 N   0  0  0  0  0  0  0  0  0  0  0  0
   33.8830   39.0890   28.1160 S   0  0  0  0  0  0  0  0  0  0  0  0
   33.8840   39.4820   29.5530 O   0  0  0  0  0  0  0  0  0  0  0  0
   33.8550   37.6180   28.0060 O   0  0  0  0  0  0  0  0  0  0  0  0
   35.4670   37.9560   19.4840 H   0  0  0  0  0  0  0  0  0  0  0  0
   31.2690   40.0720   25.5590 H   0  0  0  0  0  0  0  0  0  0  0  0
   31.2100   37.7450   24.8210 H   0  0  0  0  0  0  0  0  0  0  0  0
   32.4970   37.2470   25.9970 H   0  0  0  0  0  0  0  0  0  0  0  0
   30.8680   37.7880   26.5890 H   0  0  0  0  0  0  0  0  0  0  0  0
   36.2170   39.6240   27.9590 H   0  0  0  0  0  0  0  0  0  0  0  0
   35.4880   39.2470   26.3440 H   0  0  0  0  0  0  0  0  0  0  0  0
   35.1850   40.8370   27.1250 H   0  0  0  0  0  0  0  0  0  0  0  0
   32.6440   40.9600   27.3320 H   0  0  0  0  0  0  0  0  0  0  0  0
   31.5790   39.6540   27.9590 H   0  0  0  0  0  0  0  0  0  0  0  0
   35.7800   36.5250   14.8120 H   0  0  0  0  0  0  0  0  0  0  0  0
   34.4390   35.7360   16.7520 H   0  0  0  0  0  0  0  0  0  0  0  0
   39.3350   36.7870   17.3140 H   0  0  0  0  0  0  0  0  0  0  0  0
   34.9890   40.0270   20.8780 H   0  0  0  0  0  0  0  0  0  0  0  0
   33.2370   33.9150   23.2230 H   0  0  0  0  0  0  0  0  0  0  0  0
   33.7770   35.1730   24.4400 H   0  0  0  0  0  0  0  0  0  0  0  0
   32.1690   35.3530   23.6000 H   0  0  0  0  0  0  0  0  0  0  0  0
   33.4700   40.7850   25.0060 H   0  0  0  0  0  0  0  0  0  0  0  0
  1 23  2  0  0  0  0
  1 24  1  0  0  0  0
  1 26  1  0  0  0  0
  2  3  1  0  0  0  0
  2  4  1  0  0  0  0
  2 22  2  0  0  0  0
  3  5  2  0  0  0  0
  3 30  1  0  0  0  0
  4  9  1  0  0  0  0
  4 24  2  0  0  0  0
  5 19  1  0  0  0  0
  5 20  1  0  0  0  0
  6  7  1  0  0  0  0
  6 10  1  0  0  0  0
  6 26  1  0  0  0  0
  6 31  1  6  0  0  0
  7 32  1  0  0  0  0
  7 33  1  0  0  0  0
  7 34  1  0  0  0  0
  8 27  1  0  0  0  0
  8 35  1  0  0  0  0
  8 36  1  0  0  0  0
  8 37  1  0  0  0  0
  9 20  1  0  0  0  0
  9 25  1  0  0  0  0
 10 27  1  0  0  0  0
 10 38  1  0  0  0  0
 10 39  1  0  0  0  0
 11 12  1  0  0  0  0
 12 13  2  0  0  0  0
 12 15  1  0  0  0  0
 13 14  1  0  0  0  0
 13 40  1  0  0  0  0
 14 18  2  0  0  0  0
 14 41  1  0  0  0  0
 15 16  2  0  0  0  0
 15 42  1  0  0  0  0
 16 17  1  0  0  0  0
 16 18  1  0  0  0  0
 18 19  1  0  0  0  0
 20 21  2  0  0  0  0
 22 23  1  0  0  0  0
 22 43  1  0  0  0  0
 25 44  1  0  0  0  0
 25 45  1  0  0  0  0
 25 46  1  0  0  0  0
 26 47  1  0  0  0  0
 27 28  2  0  0  0  0
 27 29  2  0  0  0  0
M  END
$$$$
