23
 OpenBabel02232411163D
Structure written by MMmdl.
 43 46  0  0  0  0  0  0  0  0999 V2000
    3.7450  -49.7730    5.9780 O   0  0  0  0  0  0  0  0  0  0  0  0
    2.9620  -48.9350    6.4670 C   0  0  0  0  0  0  0  0  0  0  0  0
    3.2640  -47.8940    7.0650 O   0  5  0  0  0  0  0  0  0  0  0  0
    1.4830  -49.3260    6.3590 C   0  0  0  0  0  0  0  0  0  0  0  0
    1.1530  -50.9850    6.8460 S   0  0  0  0  0  0  0  0  0  0  0  0
   -0.5580  -50.8310    6.5500 C   0  0  0  0  0  0  0  0  0  0  0  0
   -1.5410  -51.7980    6.7400 C   0  0  0  0  0  0  0  0  0  0  0  0
   -2.8580  -51.4650    6.4240 C   0  0  0  0  0  0  0  0  0  0  0  0
   -3.1690  -50.1870    5.9260 C   0  0  0  0  0  0  0  0  0  0  0  0
   -2.1800  -49.2220    5.7430 C   0  0  0  0  0  0  0  0  0  0  0  0
   -0.8460  -49.5310    6.0590 C   0  0  0  0  0  0  0  0  0  0  0  0
    0.3530  -48.6830    5.9710 C   0  0  0  0  0  0  0  0  0  0  0  0
    0.2570  -47.2700    5.4880 C   0  0  0  0  0  0  0  0  0  0  0  0
    0.2440  -46.2430    6.6310 C   0  0  0  0  0  0  0  0  0  0  0  0
   -0.9190  -46.3930    7.6050 C   0  0  0  0  0  0  0  0  0  0  0  0
   -2.0940  -45.8310    6.9090 O   0  0  0  0  0  0  0  0  0  0  0  0
   -3.2800  -45.8280    7.5830 C   0  0  0  0  0  0  0  0  0  0  0  0
   -5.8130  -45.5880    8.7810 C   0  0  0  0  0  0  0  0  0  0  0  0
   -4.8270  -46.3440    9.3660 C   0  0  0  0  0  0  0  0  0  0  0  0
   -3.5410  -46.4690    8.7800 C   0  0  0  0  0  0  0  0  0  0  0  0
   -1.3100  -52.7930    7.1270 H   0  0  0  0  0  0  0  0  0  0  0  0
   -3.6550  -52.1960    6.5630 H   0  0  0  0  0  0  0  0  0  0  0  0
   -4.2080  -49.9540    5.6820 H   0  0  0  0  0  0  0  0  0  0  0  0
   -2.4650  -48.2400    5.3630 H   0  0  0  0  0  0  0  0  0  0  0  0
   -0.6800  -47.1440    4.8880 H   0  0  0  0  0  0  0  0  0  0  0  0
    1.1250  -47.0310    4.8240 H   0  0  0  0  0  0  0  0  0  0  0  0
    0.1990  -45.2170    6.1940 H   0  0  0  0  0  0  0  0  0  0  0  0
    1.1890  -46.3480    7.2250 H   0  0  0  0  0  0  0  0  0  0  0  0
   -0.7770  -45.7590    8.5070 H   0  0  0  0  0  0  0  0  0  0  0  0
   -1.1550  -47.4520    7.8330 H   0  0  0  0  0  0  0  0  0  0  0  0
   -2.8110  -47.0820    9.2960 H   0  0  0  0  0  0  0  0  0  0  0  0
   -5.5760  -44.9460    7.5260 C   0  0  0  0  0  0  0  0  0  0  0  0
   -4.3040  -45.0630    6.9060 C   0  0  0  0  0  0  0  0  0  0  0  0
   -4.0840  -44.4670    5.6310 C   0  0  0  0  0  0  0  0  0  0  0  0
   -5.0860  -43.7630    5.0080 C   0  0  0  0  0  0  0  0  0  0  0  0
   -6.3610  -43.6460    5.6230 C   0  0  0  0  0  0  0  0  0  0  0  0
   -6.6040  -44.2200    6.8480 C   0  0  0  0  0  0  0  0  0  0  0  0
   -3.1170  -44.6060    5.1470 H   0  0  0  0  0  0  0  0  0  0  0  0
   -4.9200  -43.2960    4.0390 H   0  0  0  0  0  0  0  0  0  0  0  0
   -7.1450  -43.1000    5.1030 H   0  0  0  0  0  0  0  0  0  0  0  0
   -7.5850  -44.1430    7.3130 H   0  0  0  0  0  0  0  0  0  0  0  0
   -5.0270  -46.8720   10.3020 H   0  0  0  0  0  0  0  0  0  0  0  0
   -6.7920  -45.4870    9.2460 H   0  0  0  0  0  0  0  0  0  0  0  0
  1  2  2  0  0  0  0
  2  3  1  0  0  0  0
  2  4  1  0  0  0  0
  4  5  1  0  0  0  0
  4 12  2  0  0  0  0
  5  6  1  0  0  0  0
  6  7  2  0  0  0  0
  6 11  1  0  0  0  0
  7  8  1  0  0  0  0
  7 21  1  0  0  0  0
  8  9  2  0  0  0  0
  8 22  1  0  0  0  0
  9 10  1  0  0  0  0
  9 23  1  0  0  0  0
 10 11  2  0  0  0  0
 10 24  1  0  0  0  0
 11 12  1  0  0  0  0
 12 13  1  0  0  0  0
 13 25  1  0  0  0  0
 13 26  1  0  0  0  0
 13 14  1  0  0  0  0
 14 15  1  0  0  0  0
 14 27  1  0  0  0  0
 14 28  1  0  0  0  0
 15 16  1  0  0  0  0
 15 29  1  0  0  0  0
 15 30  1  0  0  0  0
 16 17  1  0  0  0  0
 17 20  2  0  0  0  0
 17 33  1  0  0  0  0
 18 19  2  0  0  0  0
 18 32  1  0  0  0  0
 18 43  1  0  0  0  0
 19 20  1  0  0  0  0
 19 42  1  0  0  0  0
 20 31  1  0  0  0  0
 32 33  2  0  0  0  0
 32 37  1  0  0  0  0
 33 34  1  0  0  0  0
 34 35  2  0  0  0  0
 34 38  1  0  0  0  0
 35 36  1  0  0  0  0
 35 39  1  0  0  0  0
 36 37  2  0  0  0  0
 36 40  1  0  0  0  0
 37 41  1  0  0  0  0
M  CHG  1   3  -1
M  END
$$$$
