44
                    3D
 Schrodinger Suite 2022-3.
 44 47  0  0  1  0  0  0  0  0999 V2000
    3.3720  -48.3420    7.1610 O   0  0  0  0  0  0  0  0  0  0  0  0
    2.9850  -49.3050    6.4840 C   0  0  0  0  0  0  0  0  0  0  0  0
    3.6980  -50.1240    5.8740 O   0  5  0  0  0  0  0  0  0  0  0  0
    1.4690  -49.5680    6.3860 C   0  0  0  0  0  0  0  0  0  0  0  0
   -0.4220  -50.8530    6.5350 C   0  0  0  0  0  0  0  0  0  0  0  0
   -1.3700  -51.8670    6.7570 C   0  0  0  0  0  0  0  0  0  0  0  0
   -2.6890  -51.5900    6.4300 C   0  0  0  0  0  0  0  0  0  0  0  0
   -3.0670  -50.3350    5.8970 C   0  0  0  0  0  0  0  0  0  0  0  0
   -2.1350  -49.3290    5.6790 C   0  0  0  0  0  0  0  0  0  0  0  0
   -0.7880  -49.5680    5.9950 C   0  0  0  0  0  0  0  0  0  0  0  0
    0.4240  -48.7780    5.9220 C   0  0  0  0  0  0  0  0  0  0  0  0
    0.4520  -47.3660    5.4540 C   0  0  0  0  0  0  0  0  0  0  0  0
    0.4320  -46.3570    6.6170 C   0  0  0  0  0  0  0  0  0  0  0  0
   -0.7240  -46.5580    7.5870 C   0  0  0  0  0  0  0  0  0  0  0  0
   -1.9060  -45.9740    6.9070 O   0  0  0  0  0  0  0  0  0  0  0  0
   -3.0730  -45.9790    7.6040 C   0  0  0  0  0  0  0  0  0  0  0  0
   -5.4620  -45.6140    8.9840 C   0  0  0  0  0  0  0  0  0  0  0  0
   -4.5280  -46.4980    9.4660 C   0  0  0  0  0  0  0  0  0  0  0  0
   -3.3120  -46.6880    8.7690 C   0  0  0  0  0  0  0  0  0  0  0  0
   -1.0860  -52.8330    7.1720 H   0  0  0  0  0  0  0  0  0  0  0  0
   -3.4580  -52.3480    6.5870 H   0  0  0  0  0  0  0  0  0  0  0  0
   -4.1170  -50.1650    5.6570 H   0  0  0  0  0  0  0  0  0  0  0  0
   -2.4520  -48.3670    5.2740 H   0  0  0  0  0  0  0  0  0  0  0  0
   -0.4500  -47.1810    4.8140 H   0  0  0  0  0  0  0  0  0  0  0  0
    1.3650  -47.1710    4.8410 H   0  0  0  0  0  0  0  0  0  0  0  0
    0.3710  -45.3230    6.2050 H   0  0  0  0  0  0  0  0  0  0  0  0
    1.3800  -46.4710    7.2030 H   0  0  0  0  0  0  0  0  0  0  0  0
   -0.5930  -45.9700    8.5190 H   0  0  0  0  0  0  0  0  0  0  0  0
   -0.9520  -47.6320    7.7610 H   0  0  0  0  0  0  0  0  0  0  0  0
   -2.6110  -47.4100    9.1780 H   0  0  0  0  0  0  0  0  0  0  0  0
   -5.3170  -44.9580    7.7220 C   0  0  0  0  0  0  0  0  0  0  0  0
   -4.0990  -45.1450    7.0140 C   0  0  0  0  0  0  0  0  0  0  0  0
   -3.9330  -44.5410    5.7340 C   0  0  0  0  0  0  0  0  0  0  0  0
   -4.9370  -43.7780    5.1860 C   0  0  0  0  0  0  0  0  0  0  0  0
   -6.1560  -43.5950    5.8920 C   0  0  0  0  0  0  0  0  0  0  0  0
   -6.3440  -44.1660    7.1300 C   0  0  0  0  0  0  0  0  0  0  0  0
   -3.0080  -44.7200    5.1840 H   0  0  0  0  0  0  0  0  0  0  0  0
   -4.8140  -43.3140    4.2090 H   0  0  0  0  0  0  0  0  0  0  0  0
   -6.9420  -42.9960    5.4360 H   0  0  0  0  0  0  0  0  0  0  0  0
   -7.2910  -44.0230    7.6530 H   0  0  0  0  0  0  0  0  0  0  0  0
   -4.7020  -47.0550   10.3910 H   0  0  0  0  0  0  0  0  0  0  0  0
   -6.8510  -45.2700    9.9520 Cl  0  0  0  0  0  0  0  0  0  0  0  0
    0.9630  -50.8250    6.7720 N   0  0  0  0  0  0  0  0  0  0  0  0
    1.4850  -51.6180    7.1250 H   0  0  0  0  0  0  0  0  0  0  0  0
  1  2  2  0  0  0  0
  2  3  1  0  0  0  0
  2  4  1  0  0  0  0
  4 11  2  0  0  0  0
  4 43  1  0  0  0  0
  5  6  1  0  0  0  0
  5 10  2  0  0  0  0
  5 43  1  0  0  0  0
  6  7  2  0  0  0  0
  6 20  1  0  0  0  0
  7  8  1  0  0  0  0
  7 21  1  0  0  0  0
  8  9  2  0  0  0  0
  8 22  1  0  0  0  0
  9 10  1  0  0  0  0
  9 23  1  0  0  0  0
 10 11  1  0  0  0  0
 11 12  1  0  0  0  0
 12 24  1  0  0  0  0
 12 25  1  0  0  0  0
 12 13  1  0  0  0  0
 13 14  1  0  0  0  0
 13 26  1  0  0  0  0
 13 27  1  0  0  0  0
 14 15  1  0  0  0  0
 14 28  1  0  0  0  0
 14 29  1  0  0  0  0
 15 16  1  0  0  0  0
 16 19  2  0  0  0  0
 16 32  1  0  0  0  0
 17 18  2  0  0  0  0
 17 31  1  0  0  0  0
 17 42  1  0  0  0  0
 18 19  1  0  0  0  0
 18 41  1  0  0  0  0
 19 30  1  0  0  0  0
 31 32  2  0  0  0  0
 31 36  1  0  0  0  0
 32 33  1  0  0  0  0
 33 34  2  0  0  0  0
 33 37  1  0  0  0  0
 34 35  1  0  0  0  0
 34 38  1  0  0  0  0
 35 36  2  0  0  0  0
 35 39  1  0  0  0  0
 36 40  1  0  0  0  0
 43 44  1  0  0  0  0
M  CHG  1   3  -1
M  END
$$$$
