18659-1
 OpenBabel02232411163D
Structure written by MMmdl.
 50 51  0  0  0  0  0  0  0  0999 V2000
   25.7280   12.7650   29.1580 C   0  0  0  0  0  0  0  0  0  0  0  0
   24.7290   13.1940   30.1100 O   0  0  0  0  0  0  0  0  0  0  0  0
   23.4140   12.6800   29.8290 C   0  0  0  0  0  0  0  0  0  0  0  0
   23.2750   11.2280   30.3080 C   0  0  0  0  0  0  0  0  0  0  0  0
   22.1190   11.3100   31.2230 O   0  0  0  0  0  0  0  0  0  0  0  0
   21.4990   10.1600   31.5850 C   0  0  0  0  0  0  0  0  0  0  0  0
   21.9810    8.9770   31.1430 N   0  0  0  0  0  0  0  0  0  0  0  0
   21.2580    7.8340   31.4630 C   0  0  0  0  0  0  0  0  0  0  0  0
   20.1110    7.8690   32.2510 C   0  0  0  0  0  0  0  0  0  0  0  0
   19.6270    9.1170   32.7260 C   0  0  0  0  0  0  0  0  0  0  0  0
   18.4860    9.1580   33.4870 N   0  0  0  0  0  0  0  0  0  0  0  0
   20.3290   10.3180   32.3850 C   0  0  0  0  0  0  0  0  0  0  0  0
   19.9110   11.6160   32.7470 C   0  0  0  0  0  0  0  0  0  0  0  0
   19.6150   12.7070   33.0040 N   0  0  0  0  0  0  0  0  0  0  0  0
   21.8190    6.6790   30.8810 N   0  0  0  0  0  0  0  0  0  0  0  0
   21.2500    5.3830   30.8370 C   0  0  0  0  0  0  0  0  0  0  0  0
   20.1970    5.1090   31.3710 O   0  0  0  0  0  0  0  0  0  0  0  0
   22.0580    4.4010   29.9990 C   0  0  0  0  0  0  0  0  0  0  0  0
   23.4110    4.1160   30.5820 C   0  0  0  0  0  0  0  0  0  0  0  0
   24.5190    4.9600   30.2790 C   0  0  0  0  0  0  0  0  0  0  0  0
   24.1870    6.0070   29.4240 O   0  0  0  0  0  0  0  0  0  0  0  0
   25.1610    7.0740   29.2710 C   0  0  0  0  0  0  0  0  0  0  0  0
   25.7890    4.7130   30.7890 C   0  0  0  0  0  0  0  0  0  0  0  0
   25.9920    3.6180   31.6420 C   0  0  0  0  0  0  0  0  0  0  0  0
   24.9120    2.7920   31.9490 C   0  0  0  0  0  0  0  0  0  0  0  0
   23.6220    3.0220   31.4100 C   0  0  0  0  0  0  0  0  0  0  0  0
   24.9420    1.6890   32.7780 O   0  0  0  0  0  0  0  0  0  0  0  0
   26.2120    1.3420   33.3860 C   0  0  0  0  0  0  0  0  0  0  0  0
   25.4390   13.0770   28.1300 H   0  0  0  0  0  0  0  0  0  0  0  0
   25.8650   11.6630   29.2170 H   0  0  0  0  0  0  0  0  0  0  0  0
   26.6370   13.3060   29.4960 H   0  0  0  0  0  0  0  0  0  0  0  0
   23.1870   12.7620   28.7410 H   0  0  0  0  0  0  0  0  0  0  0  0
   22.7650   13.3590   30.4360 H   0  0  0  0  0  0  0  0  0  0  0  0
   24.1480   10.8860   30.9070 H   0  0  0  0  0  0  0  0  0  0  0  0
   23.0430   10.5270   29.4750 H   0  0  0  0  0  0  0  0  0  0  0  0
   19.5630    6.9560   32.4920 H   0  0  0  0  0  0  0  0  0  0  0  0
   17.9820    8.2870   33.7430 H   0  0  0  0  0  0  0  0  0  0  0  0
   18.0830   10.0430   33.7920 H   0  0  0  0  0  0  0  0  0  0  0  0
   22.7280    6.8330   30.3730 H   0  0  0  0  0  0  0  0  0  0  0  0
   21.4770    3.4470   29.9050 H   0  0  0  0  0  0  0  0  0  0  0  0
   22.1860    4.8420   28.9710 H   0  0  0  0  0  0  0  0  0  0  0  0
   26.0270    6.7010   28.6830 H   0  0  0  0  0  0  0  0  0  0  0  0
   25.4710    7.4650   30.2640 H   0  0  0  0  0  0  0  0  0  0  0  0
   24.5780    7.8320   28.7020 H   0  0  0  0  0  0  0  0  0  0  0  0
   26.6430    5.3480   30.5410 H   0  0  0  0  0  0  0  0  0  0  0  0
   26.9950    3.4440   32.0370 H   0  0  0  0  0  0  0  0  0  0  0  0
   22.8150    2.3270   31.6550 H   0  0  0  0  0  0  0  0  0  0  0  0
   25.9410    0.4380   33.9800 H   0  0  0  0  0  0  0  0  0  0  0  0
   26.5630    2.1670   34.0440 H   0  0  0  0  0  0  0  0  0  0  0  0
   26.9600    1.0950   32.6010 H   0  0  0  0  0  0  0  0  0  0  0  0
  1  2  1  0  0  0  0
  1 29  1  0  0  0  0
  1 30  1  0  0  0  0
  1 31  1  0  0  0  0
  2  3  1  0  0  0  0
  3  4  1  0  0  0  0
  3 32  1  0  0  0  0
  3 33  1  0  0  0  0
  4  5  1  0  0  0  0
  4 34  1  0  0  0  0
  4 35  1  0  0  0  0
  5  6  1  0  0  0  0
  6 12  2  0  0  0  0
  6  7  1  0  0  0  0
  7  8  2  0  0  0  0
  8  9  1  0  0  0  0
  8 15  1  0  0  0  0
  9 10  2  0  0  0  0
  9 36  1  0  0  0  0
 10 11  1  0  0  0  0
 10 12  1  0  0  0  0
 11 37  1  0  0  0  0
 11 38  1  0  0  0  0
 12 13  1  0  0  0  0
 13 14  3  0  0  0  0
 15 16  1  0  0  0  0
 15 39  1  0  0  0  0
 16 17  2  0  0  0  0
 16 18  1  0  0  0  0
 18 19  1  0  0  0  0
 18 40  1  0  0  0  0
 18 41  1  0  0  0  0
 19 26  2  0  0  0  0
 19 20  1  0  0  0  0
 20 21  1  0  0  0  0
 20 23  2  0  0  0  0
 21 22  1  0  0  0  0
 22 42  1  0  0  0  0
 22 43  1  0  0  0  0
 22 44  1  0  0  0  0
 23 24  1  0  0  0  0
 23 45  1  0  0  0  0
 24 25  2  0  0  0  0
 24 46  1  0  0  0  0
 25 26  1  0  0  0  0
 25 27  1  0  0  0  0
 26 47  1  0  0  0  0
 27 28  1  0  0  0  0
 28 48  1  0  0  0  0
 28 49  1  0  0  0  0
 28 50  1  0  0  0  0
M  END
$$$$
