p38a_3flz
 OpenBabel02232411163D
Structure written by MMmdl.
 46 49  0  0  0  0  0  0  0  0999 V2000
   35.0390   35.1930   19.0750 O   0  0  0  0  0  0  0  0  0  0  0  0
   34.8680   37.3270   20.2490 C   0  0  0  0  0  0  0  0  0  0  0  0
   34.2330   37.2280   22.6450 C   0  0  0  0  0  0  0  0  0  0  0  0
   34.5510   37.9910   21.4810 C   0  0  0  0  0  0  0  0  0  0  0  0
   34.5400   39.4060   21.6170 C   0  0  0  0  0  0  0  0  0  0  0  0
   34.0010   39.2110   23.8920 C   0  0  0  0  0  0  0  0  0  0  0  0
   34.8180   35.9730   20.2060 C   0  0  0  0  0  0  0  0  0  0  0  0
   36.0790   35.6140   18.2270 C   0  0  0  0  0  0  0  0  0  0  0  0
   33.8490   35.0620   23.8130 C   0  0  0  0  0  0  0  0  0  0  0  0
   34.9340   39.1660   27.1110 C   0  0  0  0  0  0  0  0  0  0  0  0
   35.7680   35.5710   16.8630 C   0  0  0  0  0  0  0  0  0  0  0  0
   38.0660   36.2000   16.4030 C   0  0  0  0  0  0  0  0  0  0  0  0
   36.7840   35.8700   15.9510 C   0  0  0  0  0  0  0  0  0  0  0  0
   38.3490   36.2300   17.7720 C   0  0  0  0  0  0  0  0  0  0  0  0
   34.2620   33.9120   21.3120 O   0  0  0  0  0  0  0  0  0  0  0  0
   34.4090   35.1140   21.3450 C   0  0  0  0  0  0  0  0  0  0  0  0
   37.3550   35.9310   18.7070 C   0  0  0  0  0  0  0  0  0  0  0  0
   34.2780   40.0270   22.7750 N   0  0  0  0  0  0  0  0  0  0  0  0
   34.1680   35.8280   22.5760 N   0  0  0  0  0  0  0  0  0  0  0  0
   33.9770   37.8300   23.8510 N   0  0  0  0  0  0  0  0  0  0  0  0
   33.6760   39.8440   25.0690 N   0  0  0  0  0  0  0  0  0  0  0  0
   33.5780   39.1210   26.3720 C   0  0  0  0  0  0  0  0  0  0  0  0
   32.4810   39.8000   27.2210 C   0  0  0  0  0  0  0  0  0  0  0  0
   32.4430   39.1690   28.6180 C   0  0  0  0  0  0  0  0  0  0  0  0
   33.7340   39.2300   29.2660 O   0  0  0  0  0  0  0  0  0  0  0  0
   34.7810   38.5710   28.5160 C   0  0  0  0  0  0  0  0  0  0  0  0
   35.1540   37.9360   19.3870 H   0  0  0  0  0  0  0  0  0  0  0  0
   34.7510   40.0400   20.7390 H   0  0  0  0  0  0  0  0  0  0  0  0
   33.8590   33.9610   23.6040 H   0  0  0  0  0  0  0  0  0  0  0  0
   34.6040   35.2920   24.6130 H   0  0  0  0  0  0  0  0  0  0  0  0
   32.8330   35.3550   24.1950 H   0  0  0  0  0  0  0  0  0  0  0  0
   35.6930   38.5760   26.5440 H   0  0  0  0  0  0  0  0  0  0  0  0
   35.2910   40.2220   27.1810 H   0  0  0  0  0  0  0  0  0  0  0  0
   34.7560   35.3560   16.5150 H   0  0  0  0  0  0  0  0  0  0  0  0
   38.8400   36.4740   15.6910 H   0  0  0  0  0  0  0  0  0  0  0  0
   36.5640   35.8720   14.8830 H   0  0  0  0  0  0  0  0  0  0  0  0
   39.3520   36.5070   18.1040 H   0  0  0  0  0  0  0  0  0  0  0  0
   37.5680   35.9790   19.7730 H   0  0  0  0  0  0  0  0  0  0  0  0
   33.7820   40.8760   25.1400 H   0  0  0  0  0  0  0  0  0  0  0  0
   33.2870   38.0490   26.1820 H   0  0  0  0  0  0  0  0  0  0  0  0
   32.6940   40.8920   27.3100 H   0  0  0  0  0  0  0  0  0  0  0  0
   31.4900   39.6730   26.7230 H   0  0  0  0  0  0  0  0  0  0  0  0
   31.8020   39.7610   29.3110 H   0  0  0  0  0  0  0  0  0  0  0  0
   32.1130   38.1050   28.5660 H   0  0  0  0  0  0  0  0  0  0  0  0
   34.5540   37.4800   28.4630 H   0  0  0  0  0  0  0  0  0  0  0  0
   35.6820   38.7720   29.1400 H   0  0  0  0  0  0  0  0  0  0  0  0
  1  7  1  0  0  0  0
  1  8  1  0  0  0  0
  2  4  1  0  0  0  0
  2  7  2  0  0  0  0
  2 27  1  0  0  0  0
  3  4  2  0  0  0  0
  3 19  1  0  0  0  0
  3 20  1  0  0  0  0
  4  5  1  0  0  0  0
  5 18  2  0  0  0  0
  5 28  1  0  0  0  0
  6 18  1  0  0  0  0
  6 20  2  0  0  0  0
  6 21  1  0  0  0  0
  7 16  1  0  0  0  0
  8 11  2  0  0  0  0
  8 17  1  0  0  0  0
  9 19  1  0  0  0  0
  9 29  1  0  0  0  0
  9 30  1  0  0  0  0
  9 31  1  0  0  0  0
 10 22  1  0  0  0  0
 10 26  1  0  0  0  0
 10 32  1  0  0  0  0
 10 33  1  0  0  0  0
 11 13  1  0  0  0  0
 11 34  1  0  0  0  0
 12 13  2  0  0  0  0
 12 14  1  0  0  0  0
 12 35  1  0  0  0  0
 13 36  1  0  0  0  0
 14 17  2  0  0  0  0
 14 37  1  0  0  0  0
 15 16  2  0  0  0  0
 16 19  1  0  0  0  0
 17 38  1  0  0  0  0
 21 22  1  0  0  0  0
 21 39  1  0  0  0  0
 22 23  1  0  0  0  0
 22 40  1  0  0  0  0
 23 24  1  0  0  0  0
 23 41  1  0  0  0  0
 23 42  1  0  0  0  0
 24 25  1  0  0  0  0
 24 43  1  0  0  0  0
 24 44  1  0  0  0  0
 25 26  1  0  0  0  0
 26 45  1  0  0  0  0
 26 46  1  0  0  0  0
M  END
$$$$
