p38a_2k
 OpenBabel02232411163D
Structure written by MMmdl.
 43 46  0  0  0  0  0  0  0  0999 V2000
   38.2980   36.5710   17.1180 C   0  0  0  0  0  0  0  0  0  0  0  0
   34.4460   35.0070   21.0790 C   0  0  0  0  0  0  0  0  0  0  0  0
   37.5050   36.0960   18.1590 C   0  0  0  0  0  0  0  0  0  0  0  0
   33.8250   38.9750   23.7700 C   0  0  0  0  0  0  0  0  0  0  0  0
   34.6050   37.8820   21.3530 C   0  0  0  0  0  0  0  0  0  0  0  0
   35.0560   37.2570   20.1380 C   0  0  0  0  0  0  0  0  0  0  0  0
   37.6620   36.7490   15.8820 C   0  0  0  0  0  0  0  0  0  0  0  0
   36.3140   36.4560   15.6580 C   0  0  0  0  0  0  0  0  0  0  0  0
   35.5430   35.9640   16.7160 C   0  0  0  0  0  0  0  0  0  0  0  0
   34.1050   37.0770   22.4150 C   0  0  0  0  0  0  0  0  0  0  0  0
   34.6430   39.2840   21.5880 C   0  0  0  0  0  0  0  0  0  0  0  0
   35.0010   35.9080   20.0340 C   0  0  0  0  0  0  0  0  0  0  0  0
   36.1460   35.7730   17.9630 C   0  0  0  0  0  0  0  0  0  0  0  0
   33.6220   35.1340   23.0550 H   0  0  0  0  0  0  0  0  0  0  0  0
   38.0240   35.9440   19.3700 F   0  0  0  0  0  0  0  0  0  0  0  0
   35.4200   35.1180   18.9650 O   0  0  0  0  0  0  0  0  0  0  0  0
   34.2800   39.8410   22.7530 N   0  0  0  0  0  0  0  0  0  0  0  0
   34.3410   33.8020   21.0180 O   0  0  0  0  0  0  0  0  0  0  0  0
   34.0100   35.6850   22.2640 N   0  0  0  0  0  0  0  0  0  0  0  0
   33.7110   37.6010   23.6170 N   0  0  0  0  0  0  0  0  0  0  0  0
   33.4640   39.5300   24.9710 N   0  0  0  0  0  0  0  0  0  0  0  0
   39.3500   36.8290   17.2680 H   0  0  0  0  0  0  0  0  0  0  0  0
   35.4390   37.8990   19.3420 H   0  0  0  0  0  0  0  0  0  0  0  0
   35.8520   36.6200   14.6830 H   0  0  0  0  0  0  0  0  0  0  0  0
   34.4810   35.7460   16.5630 H   0  0  0  0  0  0  0  0  0  0  0  0
   34.9820   39.9630   20.7890 H   0  0  0  0  0  0  0  0  0  0  0  0
   33.5730   40.5510   25.1230 H   0  0  0  0  0  0  0  0  0  0  0  0
   38.3690   37.2620   14.8780 F   0  0  0  0  0  0  0  0  0  0  0  0
   33.0670   40.3770   28.0580 C   0  0  0  0  0  0  0  0  0  0  0  0
   32.1610   39.6210   27.0770 C   0  0  0  0  0  0  0  0  0  0  0  0
   32.9350   38.7050   26.1070 C   0  0  0  0  0  0  0  0  0  0  0  0
   34.0580   37.9350   26.8310 C   0  0  0  0  0  0  0  0  0  0  0  0
   34.8820   38.8320   27.7550 C   0  0  0  0  0  0  0  0  0  0  0  0
   34.0280   39.5170   28.7020 O   0  0  0  0  0  0  0  0  0  0  0  0
   32.4800   40.7700   28.9210 H   0  0  0  0  0  0  0  0  0  0  0  0
   33.6170   41.1940   27.5390 H   0  0  0  0  0  0  0  0  0  0  0  0
   31.5670   40.3660   26.4920 H   0  0  0  0  0  0  0  0  0  0  0  0
   31.4440   38.9800   27.6470 H   0  0  0  0  0  0  0  0  0  0  0  0
   32.2090   37.9570   25.6720 H   0  0  0  0  0  0  0  0  0  0  0  0
   33.5740   37.1190   27.4290 H   0  0  0  0  0  0  0  0  0  0  0  0
   34.7350   37.4440   26.0890 H   0  0  0  0  0  0  0  0  0  0  0  0
   35.5420   38.2350   28.4250 H   0  0  0  0  0  0  0  0  0  0  0  0
   35.4570   39.5900   27.1740 H   0  0  0  0  0  0  0  0  0  0  0  0
  1  3  2  0  0  0  0
  1  7  1  0  0  0  0
  1 22  1  0  0  0  0
  2 12  1  0  0  0  0
  2 18  2  0  0  0  0
  2 19  1  0  0  0  0
  3 13  1  0  0  0  0
  3 15  1  0  0  0  0
  4 17  2  0  0  0  0
  4 20  1  0  0  0  0
  4 21  1  0  0  0  0
  5  6  1  0  0  0  0
  5 10  1  0  0  0  0
  5 11  2  0  0  0  0
  6 12  2  0  0  0  0
  6 23  1  0  0  0  0
  7  8  2  0  0  0  0
  7 28  1  0  0  0  0
  8  9  1  0  0  0  0
  8 24  1  0  0  0  0
  9 13  2  0  0  0  0
  9 25  1  0  0  0  0
 10 19  1  0  0  0  0
 10 20  2  0  0  0  0
 11 17  1  0  0  0  0
 11 26  1  0  0  0  0
 12 16  1  0  0  0  0
 13 16  1  0  0  0  0
 14 19  1  0  0  0  0
 21 27  1  0  0  0  0
 21 31  1  0  0  0  0
 29 30  1  0  0  0  0
 29 34  1  0  0  0  0
 29 35  1  0  0  0  0
 29 36  1  0  0  0  0
 30 31  1  0  0  0  0
 30 37  1  0  0  0  0
 30 38  1  0  0  0  0
 31 32  1  0  0  0  0
 31 39  1  0  0  0  0
 32 33  1  0  0  0  0
 32 40  1  0  0  0  0
 32 41  1  0  0  0  0
 33 34  1  0  0  0  0
 33 42  1  0  0  0  0
 33 43  1  0  0  0  0
M  END
$$$$
