32
                    3D
 Schrodinger Suite 2022-3.
 41 43  0  0  1  0  0  0  0  0999 V2000
    3.4310  -48.3980    7.2080 O   0  0  0  0  0  0  0  0  0  0  0  0
    3.0230  -49.3190    6.4890 C   0  0  0  0  0  0  0  0  0  0  0  0
    3.7170  -50.1060    5.8160 O   0  5  0  0  0  0  0  0  0  0  0  0
    1.5040  -49.5730    6.4180 C   0  0  0  0  0  0  0  0  0  0  0  0
   -0.3860  -50.8570    6.5690 C   0  0  0  0  0  0  0  0  0  0  0  0
   -1.3290  -51.8770    6.7770 C   0  0  0  0  0  0  0  0  0  0  0  0
   -2.6540  -51.5930    6.4800 C   0  0  0  0  0  0  0  0  0  0  0  0
   -3.0390  -50.3230    5.9870 C   0  0  0  0  0  0  0  0  0  0  0  0
   -2.1110  -49.3110    5.7820 C   0  0  0  0  0  0  0  0  0  0  0  0
   -0.7590  -49.5550    6.0730 C   0  0  0  0  0  0  0  0  0  0  0  0
    0.4530  -48.7650    6.0000 C   0  0  0  0  0  0  0  0  0  0  0  0
    0.4940  -47.3450    5.5610 C   0  0  0  0  0  0  0  0  0  0  0  0
    0.4490  -46.3560    6.7400 C   0  0  0  0  0  0  0  0  0  0  0  0
   -0.8880  -46.3520    7.4790 C   0  0  0  0  0  0  0  0  0  0  0  0
   -1.8020  -45.7000    6.5250 O   0  0  0  0  0  0  0  0  0  0  0  0
   -3.0850  -45.4520    6.9210 C   0  0  0  0  0  0  0  0  0  0  0  0
   -3.8180  -44.6690    5.9980 C   0  0  0  0  0  0  0  0  0  0  0  0
   -5.1410  -44.3550    6.2800 C   0  0  0  0  0  0  0  0  0  0  0  0
   -5.7530  -44.8130    7.4640 C   0  0  0  0  0  0  0  0  0  0  0  0
   -5.0090  -45.5810    8.3680 C   0  0  0  0  0  0  0  0  0  0  0  0
   -3.6750  -45.9080    8.1100 C   0  0  0  0  0  0  0  0  0  0  0  0
   -1.0390  -52.8560    7.1590 H   0  0  0  0  0  0  0  0  0  0  0  0
   -3.4210  -52.3530    6.6290 H   0  0  0  0  0  0  0  0  0  0  0  0
   -4.0930  -50.1480    5.7690 H   0  0  0  0  0  0  0  0  0  0  0  0
   -2.4380  -48.3410    5.4030 H   0  0  0  0  0  0  0  0  0  0  0  0
   -0.3920  -47.1400    4.9040 H   0  0  0  0  0  0  0  0  0  0  0  0
    1.4200  -47.1410    4.9710 H   0  0  0  0  0  0  0  0  0  0  0  0
    0.6220  -45.3250    6.3520 H   0  0  0  0  0  0  0  0  0  0  0  0
    1.2470  -46.6200    7.4740 H   0  0  0  0  0  0  0  0  0  0  0  0
   -0.8590  -45.7160    8.3890 H   0  0  0  0  0  0  0  0  0  0  0  0
   -1.2850  -47.3710    7.6700 H   0  0  0  0  0  0  0  0  0  0  0  0
   -3.3520  -44.3270    5.0780 H   0  0  0  0  0  0  0  0  0  0  0  0
   -3.1380  -46.5220    8.8270 H   0  0  0  0  0  0  0  0  0  0  0  0
    1.0030  -50.8400    6.7760 N   0  0  0  0  0  0  0  0  0  0  0  0
    1.5280  -51.6430    7.1040 H   0  0  0  0  0  0  0  0  0  0  0  0
   -5.4800  -45.9420    9.2840 H   0  0  0  0  0  0  0  0  0  0  0  0
   -5.7190  -43.7590    5.5730 H   0  0  0  0  0  0  0  0  0  0  0  0
   -7.1970  -44.5120    7.7190 C   0  0  0  0  0  0  0  0  0  0  0  0
   -7.4820  -44.7570    8.7660 H   0  0  0  0  0  0  0  0  0  0  0  0
   -7.4140  -43.4370    7.5300 H   0  0  0  0  0  0  0  0  0  0  0  0
   -7.8310  -45.1260    7.0340 H   0  0  0  0  0  0  0  0  0  0  0  0
  1  2  2  0  0  0  0
  2  3  1  0  0  0  0
  2  4  1  0  0  0  0
  4 11  2  0  0  0  0
  4 34  1  0  0  0  0
  5  6  1  0  0  0  0
  5 10  2  0  0  0  0
  5 34  1  0  0  0  0
  6  7  2  0  0  0  0
  6 22  1  0  0  0  0
  7  8  1  0  0  0  0
  7 23  1  0  0  0  0
  8  9  2  0  0  0  0
  8 24  1  0  0  0  0
  9 10  1  0  0  0  0
  9 25  1  0  0  0  0
 10 11  1  0  0  0  0
 11 12  1  0  0  0  0
 12 26  1  0  0  0  0
 12 27  1  0  0  0  0
 12 13  1  0  0  0  0
 13 14  1  0  0  0  0
 13 28  1  0  0  0  0
 13 29  1  0  0  0  0
 14 15  1  0  0  0  0
 14 30  1  0  0  0  0
 14 31  1  0  0  0  0
 15 16  1  0  0  0  0
 16 17  1  0  0  0  0
 16 21  2  0  0  0  0
 17 18  2  0  0  0  0
 17 32  1  0  0  0  0
 18 19  1  0  0  0  0
 18 37  1  0  0  0  0
 19 20  2  0  0  0  0
 19 38  1  0  0  0  0
 20 21  1  0  0  0  0
 20 36  1  0  0  0  0
 21 33  1  0  0  0  0
 34 35  1  0  0  0  0
 38 39  1  0  0  0  0
 38 40  1  0  0  0  0
 38 41  1  0  0  0  0
M  CHG  1   3  -1
M  END
$$$$
