23469
 OpenBabel02232411173D
Structure written by MMmdl.
 41 43  0  0  0  0  0  0  0  0999 V2000
   40.2620   18.3230   12.8050 O   0  0  0  0  0  0  0  0  0  0  0  0
   41.2990   17.6360   12.9190 C   0  0  0  0  0  0  0  0  0  0  0  0
   42.4360   17.9570   12.5580 O   0  5  0  0  0  0  0  0  0  0  0  0
   41.0860   16.2250   13.5540 C   0  0  0  0  0  0  0  0  0  0  0  0
   42.4630   15.7500   13.6980 O   0  0  0  0  0  0  0  0  0  0  0  0
   42.6720   14.9060   14.7400 C   0  0  0  0  0  0  0  0  0  0  0  0
   42.1000   13.5800   14.8420 C   0  0  0  0  0  0  0  0  0  0  0  0
   40.8660   12.9290   13.5420 Br  0  0  0  0  0  0  0  0  0  0  0  0
   42.5470   12.8420   15.9060 C   0  0  0  0  0  0  0  0  0  0  0  0
   42.2250   11.4920   16.3210 C   0  0  0  0  0  0  0  0  0  0  0  0
   43.1710   10.6950   17.0060 C   0  0  0  0  0  0  0  0  0  0  0  0
   42.8760    9.3750   17.3380 C   0  0  0  0  0  0  0  0  0  0  0  0
   41.6620    8.7870   16.9640 C   0  0  0  0  0  0  0  0  0  0  0  0
   40.7220    9.5750   16.2900 C   0  0  0  0  0  0  0  0  0  0  0  0
   39.4960    9.0140   15.7690 N   0  0  0  0  0  0  0  0  0  0  0  0
   38.8380    7.8950   16.2790 C   0  0  0  0  0  0  0  0  0  0  0  0
   39.0290    7.4650   17.4080 O   0  0  0  0  0  0  0  0  0  0  0  0
   37.8560    7.2420   15.3410 C   0  0  0  0  0  0  0  0  0  0  0  0
   38.3130    6.6980   14.1320 C   0  0  0  0  0  0  0  0  0  0  0  0
   37.4320    5.9820   13.3170 C   0  0  0  0  0  0  0  0  0  0  0  0
   36.0980    5.8130   13.7020 C   0  0  0  0  0  0  0  0  0  0  0  0
   35.6410    6.3740   14.8980 C   0  0  0  0  0  0  0  0  0  0  0  0
   36.5160    7.0920   15.7200 C   0  0  0  0  0  0  0  0  0  0  0  0
   40.9710   10.9300   16.0230 C   0  0  0  0  0  0  0  0  0  0  0  0
   43.7200   13.7980   16.7810 S   0  0  0  0  0  0  0  0  0  0  0  0
   43.5750   15.1890   15.7350 C   0  0  0  0  0  0  0  0  0  0  0  0
   44.3810   16.4550   16.0370 C   0  0  0  0  0  0  0  0  0  0  0  0
   44.2550   17.4420   15.3150 O   0  0  0  0  0  0  0  0  0  0  0  0
   45.1500   16.3590   17.0230 O   0  5  0  0  0  0  0  0  0  0  0  0
   40.5610   16.2670   14.5310 H   0  0  0  0  0  0  0  0  0  0  0  0
   40.5570   15.5470   12.8530 H   0  0  0  0  0  0  0  0  0  0  0  0
   44.1510   11.0920   17.2780 H   0  0  0  0  0  0  0  0  0  0  0  0
   43.6050    8.7720   17.8850 H   0  0  0  0  0  0  0  0  0  0  0  0
   41.4680    7.7410   17.1850 H   0  0  0  0  0  0  0  0  0  0  0  0
   39.1720    9.4090   14.8680 H   0  0  0  0  0  0  0  0  0  0  0  0
   39.3570    6.8160   13.8240 H   0  0  0  0  0  0  0  0  0  0  0  0
   37.7870    5.5410   12.3820 H   0  0  0  0  0  0  0  0  0  0  0  0
   35.4160    5.2360   13.0730 H   0  0  0  0  0  0  0  0  0  0  0  0
   34.6000    6.2370   15.1960 H   0  0  0  0  0  0  0  0  0  0  0  0
   36.1450    7.5230   16.6540 H   0  0  0  0  0  0  0  0  0  0  0  0
   40.1710   11.5290   15.5800 H   0  0  0  0  0  0  0  0  0  0  0  0
  1  2  2  0  0  0  0
  2  3  1  0  0  0  0
  2  4  1  0  0  0  0
  4  5  1  0  0  0  0
  4 30  1  0  0  0  0
  4 31  1  0  0  0  0
  5  6  1  0  0  0  0
  6 26  2  0  0  0  0
  6  7  1  0  0  0  0
  7  8  1  0  0  0  0
  7  9  2  0  0  0  0
  9 10  1  0  0  0  0
  9 25  1  0  0  0  0
 10 24  2  0  0  0  0
 10 11  1  0  0  0  0
 11 12  2  0  0  0  0
 11 32  1  0  0  0  0
 12 13  1  0  0  0  0
 12 33  1  0  0  0  0
 13 14  2  0  0  0  0
 13 34  1  0  0  0  0
 14 15  1  0  0  0  0
 14 24  1  0  0  0  0
 15 16  1  0  0  0  0
 15 35  1  0  0  0  0
 16 17  2  0  0  0  0
 16 18  1  0  0  0  0
 18 23  2  0  0  0  0
 18 19  1  0  0  0  0
 19 20  2  0  0  0  0
 19 36  1  0  0  0  0
 20 21  1  0  0  0  0
 20 37  1  0  0  0  0
 21 22  2  0  0  0  0
 21 38  1  0  0  0  0
 22 23  1  0  0  0  0
 22 39  1  0  0  0  0
 23 40  1  0  0  0  0
 24 41  1  0  0  0  0
 25 26  1  0  0  0  0
 26 27  1  0  0  0  0
 27 28  2  0  0  0  0
 27 29  1  0  0  0  0
M  CHG  2   3  -1  29  -1
M  END
$$$$
