p38a_2r
 OpenBabel02232411163D
Structure written by MMmdl.
 56 59  0  0  0  0  0  0  0  0999 V2000
   38.2540   36.5160   17.1800 C   0  0  0  0  0  0  0  0  0  0  0  0
   34.6970   35.0940   21.3230 C   0  0  0  0  0  0  0  0  0  0  0  0
   37.4620   36.0700   18.2350 C   0  0  0  0  0  0  0  0  0  0  0  0
   34.0980   39.1850   23.8320 C   0  0  0  0  0  0  0  0  0  0  0  0
   34.6710   37.9680   21.4250 C   0  0  0  0  0  0  0  0  0  0  0  0
   34.9990   37.3110   20.1900 C   0  0  0  0  0  0  0  0  0  0  0  0
   37.6120   36.6760   15.9440 C   0  0  0  0  0  0  0  0  0  0  0  0
   36.2610   36.3890   15.7350 C   0  0  0  0  0  0  0  0  0  0  0  0
   35.4900   35.9310   16.8090 C   0  0  0  0  0  0  0  0  0  0  0  0
   34.4420   37.2030   22.6060 C   0  0  0  0  0  0  0  0  0  0  0  0
   34.5900   39.3830   21.5480 C   0  0  0  0  0  0  0  0  0  0  0  0
   35.0420   35.9590   20.1650 C   0  0  0  0  0  0  0  0  0  0  0  0
   36.0960   35.7620   18.0570 C   0  0  0  0  0  0  0  0  0  0  0  0
   37.9920   35.9310   19.4440 F   0  0  0  0  0  0  0  0  0  0  0  0
   35.3600   35.1460   19.0780 O   0  0  0  0  0  0  0  0  0  0  0  0
   34.3180   40.0040   22.7050 N   0  0  0  0  0  0  0  0  0  0  0  0
   34.5960   33.8830   21.2820 O   0  0  0  0  0  0  0  0  0  0  0  0
   34.4910   35.7950   22.5610 N   0  0  0  0  0  0  0  0  0  0  0  0
   34.1780   37.8060   23.8080 N   0  0  0  0  0  0  0  0  0  0  0  0
   33.7240   39.8030   25.0020 N   0  0  0  0  0  0  0  0  0  0  0  0
   39.3100   36.7650   17.3170 H   0  0  0  0  0  0  0  0  0  0  0  0
   35.2150   37.9290   19.3150 H   0  0  0  0  0  0  0  0  0  0  0  0
   35.7950   36.5330   14.7580 H   0  0  0  0  0  0  0  0  0  0  0  0
   34.4240   35.7240   16.6660 H   0  0  0  0  0  0  0  0  0  0  0  0
   34.7510   40.0220   20.6630 H   0  0  0  0  0  0  0  0  0  0  0  0
   33.7940   40.8340   25.0880 H   0  0  0  0  0  0  0  0  0  0  0  0
   38.3180   37.1650   14.9280 F   0  0  0  0  0  0  0  0  0  0  0  0
   32.3460   39.0920   28.4910 C   0  0  0  0  0  0  0  0  0  0  0  0
   32.4750   39.7760   27.1240 C   0  0  0  0  0  0  0  0  0  0  0  0
   33.5480   39.0520   26.2820 C   0  0  0  0  0  0  0  0  0  0  0  0
   34.8800   38.9730   27.0590 C   0  0  0  0  0  0  0  0  0  0  0  0
   34.6360   38.3300   28.4300 C   0  0  0  0  0  0  0  0  0  0  0  0
   33.6170   39.0340   29.1780 O   0  0  0  0  0  0  0  0  0  0  0  0
   31.9430   38.0580   28.3830 H   0  0  0  0  0  0  0  0  0  0  0  0
   31.7280   39.7010   29.1900 H   0  0  0  0  0  0  0  0  0  0  0  0
   32.7600   40.8450   27.2670 H   0  0  0  0  0  0  0  0  0  0  0  0
   31.4940   39.7420   26.5930 H   0  0  0  0  0  0  0  0  0  0  0  0
   33.1910   38.0100   26.0450 H   0  0  0  0  0  0  0  0  0  0  0  0
   35.6120   38.3520   26.4890 H   0  0  0  0  0  0  0  0  0  0  0  0
   35.3060   39.9960   27.1860 H   0  0  0  0  0  0  0  0  0  0  0  0
   34.3300   37.2630   28.3200 H   0  0  0  0  0  0  0  0  0  0  0  0
   35.5280   38.4340   29.0900 H   0  0  0  0  0  0  0  0  0  0  0  0
   34.3420   35.0040   23.8180 C   0  0  0  0  0  0  0  0  0  0  0  0
   35.0890   34.1650   23.7910 H   0  0  0  0  0  0  0  0  0  0  0  0
   34.5970   35.6600   24.7020 H   0  0  0  0  0  0  0  0  0  0  0  0
   32.9100   34.4130   24.0560 C   0  0  0  0  0  0  0  0  0  0  0  0
   32.5800   33.4590   23.0270 O   0  0  0  0  0  0  0  0  0  0  0  0
   33.4000   33.1470   22.5740 H   0  0  0  0  0  0  0  0  0  0  0  0
   31.8090   35.4710   24.0140 C   0  0  0  0  0  0  0  0  0  0  0  0
   31.8270   36.0330   23.0590 H   0  0  0  0  0  0  0  0  0  0  0  0
   30.8060   34.9990   24.1210 H   0  0  0  0  0  0  0  0  0  0  0  0
   31.9440   36.1950   24.8530 H   0  0  0  0  0  0  0  0  0  0  0  0
   32.9340   33.6590   25.3960 C   0  0  0  0  0  0  0  0  0  0  0  0
   31.9380   33.2050   25.6040 H   0  0  0  0  0  0  0  0  0  0  0  0
   33.6900   32.8430   25.3920 H   0  0  0  0  0  0  0  0  0  0  0  0
   33.1730   34.3540   26.2360 H   0  0  0  0  0  0  0  0  0  0  0  0
  1  3  2  0  0  0  0
  1  7  1  0  0  0  0
  1 21  1  0  0  0  0
  2 12  1  0  0  0  0
  2 17  2  0  0  0  0
  2 18  1  0  0  0  0
  3 13  1  0  0  0  0
  3 14  1  0  0  0  0
  4 16  2  0  0  0  0
  4 19  1  0  0  0  0
  4 20  1  0  0  0  0
  5  6  1  0  0  0  0
  5 10  1  0  0  0  0
  5 11  2  0  0  0  0
  6 12  2  0  0  0  0
  6 22  1  0  0  0  0
  7  8  2  0  0  0  0
  7 27  1  0  0  0  0
  8  9  1  0  0  0  0
  8 23  1  0  0  0  0
  9 13  2  0  0  0  0
  9 24  1  0  0  0  0
 10 18  1  0  0  0  0
 10 19  2  0  0  0  0
 11 16  1  0  0  0  0
 11 25  1  0  0  0  0
 12 15  1  0  0  0  0
 13 15  1  0  0  0  0
 18 43  1  0  0  0  0
 20 26  1  0  0  0  0
 20 30  1  0  0  0  0
 28 29  1  0  0  0  0
 28 33  1  0  0  0  0
 28 34  1  0  0  0  0
 28 35  1  0  0  0  0
 29 30  1  0  0  0  0
 29 36  1  0  0  0  0
 29 37  1  0  0  0  0
 30 31  1  0  0  0  0
 30 38  1  0  0  0  0
 31 32  1  0  0  0  0
 31 39  1  0  0  0  0
 31 40  1  0  0  0  0
 32 33  1  0  0  0  0
 32 41  1  0  0  0  0
 32 42  1  0  0  0  0
 43 44  1  0  0  0  0
 43 45  1  0  0  0  0
 43 46  1  0  0  0  0
 46 47  1  0  0  0  0
 46 49  1  0  0  0  0
 46 53  1  0  0  0  0
 47 48  1  0  0  0  0
 49 50  1  0  0  0  0
 49 51  1  0  0  0  0
 49 52  1  0  0  0  0
 53 54  1  0  0  0  0
 53 55  1  0  0  0  0
 53 56  1  0  0  0  0
M  END
$$$$
