p38a_2n
 OpenBabel02232411163D
Structure written by MMmdl.
 53 56  0  0  0  0  0  0  0  0999 V2000
   36.4560   36.2120   15.5520 C   0  0  0  0  0  0  0  0  0  0  0  0
   34.6330   34.7920   20.9240 C   0  0  0  0  0  0  0  0  0  0  0  0
   35.8520   35.6400   16.6660 C   0  0  0  0  0  0  0  0  0  0  0  0
   33.8160   38.7170   23.6330 C   0  0  0  0  0  0  0  0  0  0  0  0
   34.7430   37.6440   21.2710 C   0  0  0  0  0  0  0  0  0  0  0  0
   35.3180   37.0570   20.0920 C   0  0  0  0  0  0  0  0  0  0  0  0
   37.7380   36.7430   15.7400 C   0  0  0  0  0  0  0  0  0  0  0  0
   38.4140   36.7120   16.9630 C   0  0  0  0  0  0  0  0  0  0  0  0
   37.7670   36.1740   18.0800 C   0  0  0  0  0  0  0  0  0  0  0  0
   34.1950   36.8140   22.2960 C   0  0  0  0  0  0  0  0  0  0  0  0
   34.7280   39.0480   21.4980 C   0  0  0  0  0  0  0  0  0  0  0  0
   35.2900   35.7120   19.9590 C   0  0  0  0  0  0  0  0  0  0  0  0
   36.4890   35.6330   17.9230 C   0  0  0  0  0  0  0  0  0  0  0  0
   34.6560   35.0750   16.5710 F   0  0  0  0  0  0  0  0  0  0  0  0
   35.8270   34.9330   18.9390 O   0  0  0  0  0  0  0  0  0  0  0  0
   34.2850   39.5980   22.6370 N   0  0  0  0  0  0  0  0  0  0  0  0
   34.5150   33.5960   20.7600 O   0  0  0  0  0  0  0  0  0  0  0  0
   34.1320   35.4180   22.1170 N   0  0  0  0  0  0  0  0  0  0  0  0
   33.7430   37.3460   23.4770 N   0  0  0  0  0  0  0  0  0  0  0  0
   33.3540   39.2870   24.8000 N   0  0  0  0  0  0  0  0  0  0  0  0
   35.9480   36.2640   14.5880 H   0  0  0  0  0  0  0  0  0  0  0  0
   35.7740   37.7210   19.3550 H   0  0  0  0  0  0  0  0  0  0  0  0
   39.4190   37.1270   17.0650 H   0  0  0  0  0  0  0  0  0  0  0  0
   38.2560   36.2040   19.0570 H   0  0  0  0  0  0  0  0  0  0  0  0
   35.0980   39.7370   20.7190 H   0  0  0  0  0  0  0  0  0  0  0  0
   33.5170   40.3030   24.9590 H   0  0  0  0  0  0  0  0  0  0  0  0
   38.3210   37.3370   14.7030 F   0  0  0  0  0  0  0  0  0  0  0  0
   31.9160   38.5430   28.2600 C   0  0  0  0  0  0  0  0  0  0  0  0
   32.1210   39.2770   26.9290 C   0  0  0  0  0  0  0  0  0  0  0  0
   33.0810   38.4740   26.0260 C   0  0  0  0  0  0  0  0  0  0  0  0
   34.3930   38.1580   26.7790 C   0  0  0  0  0  0  0  0  0  0  0  0
   34.0760   37.4770   28.1150 C   0  0  0  0  0  0  0  0  0  0  0  0
   33.1740   38.2720   28.9180 O   0  0  0  0  0  0  0  0  0  0  0  0
   31.3730   37.5820   28.1040 H   0  0  0  0  0  0  0  0  0  0  0  0
   31.3950   39.1900   29.0020 H   0  0  0  0  0  0  0  0  0  0  0  0
   32.5420   40.2930   27.1230 H   0  0  0  0  0  0  0  0  0  0  0  0
   31.1390   39.3960   26.4120 H   0  0  0  0  0  0  0  0  0  0  0  0
   32.5850   37.5120   25.7130 H   0  0  0  0  0  0  0  0  0  0  0  0
   35.0270   37.4710   26.1660 H   0  0  0  0  0  0  0  0  0  0  0  0
   34.9670   39.0990   26.9560 H   0  0  0  0  0  0  0  0  0  0  0  0
   33.6250   36.4700   27.9510 H   0  0  0  0  0  0  0  0  0  0  0  0
   34.9810   37.4150   28.7620 H   0  0  0  0  0  0  0  0  0  0  0  0
   33.5180   34.5370   23.1680 C   0  0  0  0  0  0  0  0  0  0  0  0
   34.0980   33.5740   23.1870 H   0  0  0  0  0  0  0  0  0  0  0  0
   33.6280   35.0370   24.1730 H   0  0  0  0  0  0  0  0  0  0  0  0
   32.0280   34.2580   22.9170 C   0  0  0  0  0  0  0  0  0  0  0  0
   31.6550   33.6430   23.7810 H   0  0  0  0  0  0  0  0  0  0  0  0
   31.4570   35.2170   22.9300 H   0  0  0  0  0  0  0  0  0  0  0  0
   31.7610   33.5000   21.6140 C   0  0  0  0  0  0  0  0  0  0  0  0
   31.6970   34.1850   20.7440 H   0  0  0  0  0  0  0  0  0  0  0  0
   32.5110   32.6940   21.4490 H   0  0  0  0  0  0  0  0  0  0  0  0
   30.4800   32.8390   21.7490 O   0  0  0  0  0  0  0  0  0  0  0  0
   30.0920   32.7690   20.7980 H   0  0  0  0  0  0  0  0  0  0  0  0
  1  3  2  0  0  0  0
  1  7  1  0  0  0  0
  1 21  1  0  0  0  0
  2 12  1  0  0  0  0
  2 17  2  0  0  0  0
  2 18  1  0  0  0  0
  3 13  1  0  0  0  0
  3 14  1  0  0  0  0
  4 16  2  0  0  0  0
  4 19  1  0  0  0  0
  4 20  1  0  0  0  0
  5  6  1  0  0  0  0
  5 10  1  0  0  0  0
  5 11  2  0  0  0  0
  6 12  2  0  0  0  0
  6 22  1  0  0  0  0
  7  8  2  0  0  0  0
  7 27  1  0  0  0  0
  8  9  1  0  0  0  0
  8 23  1  0  0  0  0
  9 13  2  0  0  0  0
  9 24  1  0  0  0  0
 10 18  1  0  0  0  0
 10 19  2  0  0  0  0
 11 16  1  0  0  0  0
 11 25  1  0  0  0  0
 12 15  1  0  0  0  0
 13 15  1  0  0  0  0
 18 43  1  0  0  0  0
 20 26  1  0  0  0  0
 20 30  1  0  0  0  0
 28 29  1  0  0  0  0
 28 33  1  0  0  0  0
 28 34  1  0  0  0  0
 28 35  1  0  0  0  0
 29 30  1  0  0  0  0
 29 36  1  0  0  0  0
 29 37  1  0  0  0  0
 30 31  1  0  0  0  0
 30 38  1  0  0  0  0
 31 32  1  0  0  0  0
 31 39  1  0  0  0  0
 31 40  1  0  0  0  0
 32 33  1  0  0  0  0
 32 41  1  0  0  0  0
 32 42  1  0  0  0  0
 43 44  1  0  0  0  0
 43 45  1  0  0  0  0
 43 46  1  0  0  0  0
 46 47  1  0  0  0  0
 46 48  1  0  0  0  0
 46 49  1  0  0  0  0
 49 50  1  0  0  0  0
 49 51  1  0  0  0  0
 49 52  1  0  0  0  0
 52 53  1  0  0  0  0
M  END
$$$$
