32
 OpenBabel02232411153D
Structure written by MMmdl.
 54 57  0  0  0  0  0  0  0  0999 V2000
    2.3260   28.7350    6.5590 C   0  0  0  0  0  0  0  0  0  0  0  0
   -1.1810   31.2880    7.7470 C   0  0  0  0  0  0  0  0  0  0  0  0
    0.5020   25.9690    8.9980 C   0  0  0  0  0  0  0  0  0  0  0  0
   -0.5050   25.2800    9.9290 C   0  0  0  0  0  0  0  0  0  0  0  0
   -0.4440   23.7550    9.7050 C   0  0  0  0  0  0  0  0  0  0  0  0
   -1.4040   23.0270   10.6580 C   0  0  0  0  0  0  0  0  0  0  0  0
   -1.1220   23.3840   12.1270 C   0  0  0  0  0  0  0  0  0  0  0  0
   -1.1740   24.9030   12.3530 C   0  0  0  0  0  0  0  0  0  0  0  0
   -0.2210   25.6390   11.4000 C   0  0  0  0  0  0  0  0  0  0  0  0
    6.0000   25.9110    4.7640 C   0  0  0  0  0  0  0  0  0  0  0  0
    5.8100   24.8010    5.6120 C   0  0  0  0  0  0  0  0  0  0  0  0
    4.9000   24.9750    6.6760 C   0  0  0  0  0  0  0  0  0  0  0  0
    4.1280   26.1370    6.8480 C   0  0  0  0  0  0  0  0  0  0  0  0
    1.6840   27.7990    7.3590 N   0  0  0  0  0  0  0  0  0  0  0  0
    0.4760   28.1190    7.9030 C   0  0  0  0  0  0  0  0  0  0  0  0
   -0.1790   27.2470    8.6770 O   0  0  0  0  0  0  0  0  0  0  0  0
   -0.1020   29.3950    7.6780 C   0  0  0  0  0  0  0  0  0  0  0  0
   -1.2650   30.0180    8.1490 N   0  0  0  0  0  0  0  0  0  0  0  0
    0.0250   31.5480    7.0050 N   0  0  0  0  0  0  0  0  0  0  0  0
    0.7060   30.3380    6.9240 C   0  0  0  0  0  0  0  0  0  0  0  0
    1.9000   30.0310    6.3210 N   0  0  0  0  0  0  0  0  0  0  0  0
    3.4990   28.3680    5.8870 N   0  0  0  0  0  0  0  0  0  0  0  0
    4.2610   27.1740    5.9210 C   0  0  0  0  0  0  0  0  0  0  0  0
    5.2550   27.0650    4.9080 C   0  0  0  0  0  0  0  0  0  0  0  0
   -1.8970   32.0840    7.9340 H   0  0  0  0  0  0  0  0  0  0  0  0
    1.4640   26.2070    9.5000 H   0  0  0  0  0  0  0  0  0  0  0  0
    0.6490   25.4250    8.0440 H   0  0  0  0  0  0  0  0  0  0  0  0
   -1.5320   25.6450    9.6730 H   0  0  0  0  0  0  0  0  0  0  0  0
   -0.7190   23.5180    8.6540 H   0  0  0  0  0  0  0  0  0  0  0  0
    0.5970   23.3950    9.8970 H   0  0  0  0  0  0  0  0  0  0  0  0
   -2.4500   23.3150   10.4110 H   0  0  0  0  0  0  0  0  0  0  0  0
   -1.2870   21.9260   10.5310 H   0  0  0  0  0  0  0  0  0  0  0  0
   -1.8750   22.8850   12.7790 H   0  0  0  0  0  0  0  0  0  0  0  0
   -0.1100   23.0100   12.4060 H   0  0  0  0  0  0  0  0  0  0  0  0
   -2.2160   25.2650   12.2000 H   0  0  0  0  0  0  0  0  0  0  0  0
   -0.8750   25.1290   13.4040 H   0  0  0  0  0  0  0  0  0  0  0  0
    0.8280   25.3520   11.6560 H   0  0  0  0  0  0  0  0  0  0  0  0
   -0.3300   26.7380   11.5450 H   0  0  0  0  0  0  0  0  0  0  0  0
    6.7530   25.8760    3.9630 H   0  0  0  0  0  0  0  0  0  0  0  0
    3.4210   26.2300    7.6730 H   0  0  0  0  0  0  0  0  0  0  0  0
    0.2540   32.4480    6.5610 H   0  0  0  0  0  0  0  0  0  0  0  0
    3.9180   29.1230    5.2750 H   0  0  0  0  0  0  0  0  0  0  0  0
    5.4360   27.8960    4.2300 H   0  0  0  0  0  0  0  0  0  0  0  0
    6.6520   23.3520    5.2200 S   0  0  0  0  0  0  0  0  0  0  0  0
    5.6960   22.2990    4.8310 O   0  0  0  0  0  0  0  0  0  0  0  0
    7.7220   23.5390    4.2250 O   0  0  0  0  0  0  0  0  0  0  0  0
    7.3960   22.9370    6.7030 N   0  0  0  0  0  0  0  0  0  0  0  0
    6.7990   22.8980    7.5420 H   0  0  0  0  0  0  0  0  0  0  0  0
    8.1200   22.1980    6.6880 H   0  0  0  0  0  0  0  0  0  0  0  0
    4.8540   23.9160    7.5450 O   0  0  0  0  0  0  0  0  0  0  0  0
    3.9070   23.9370    8.6460 C   0  0  0  0  0  0  0  0  0  0  0  0
    4.1650   22.9940    9.1850 H   0  0  0  0  0  0  0  0  0  0  0  0
    4.0930   24.8150    9.3010 H   0  0  0  0  0  0  0  0  0  0  0  0
    2.8730   23.9030    8.2520 H   0  0  0  0  0  0  0  0  0  0  0  0
  1 14  2  0  0  0  0
  1 21  1  0  0  0  0
  1 22  1  0  0  0  0
  2 18  2  0  0  0  0
  2 19  1  0  0  0  0
  2 25  1  0  0  0  0
  3  4  1  0  0  0  0
  3 16  1  0  0  0  0
  3 26  1  0  0  0  0
  3 27  1  0  0  0  0
  4  5  1  0  0  0  0
  4  9  1  0  0  0  0
  4 28  1  0  0  0  0
  5  6  1  0  0  0  0
  5 29  1  0  0  0  0
  5 30  1  0  0  0  0
  6  7  1  0  0  0  0
  6 31  1  0  0  0  0
  6 32  1  0  0  0  0
  7  8  1  0  0  0  0
  7 33  1  0  0  0  0
  7 34  1  0  0  0  0
  8  9  1  0  0  0  0
  8 35  1  0  0  0  0
  8 36  1  0  0  0  0
  9 37  1  0  0  0  0
  9 38  1  0  0  0  0
 10 11  2  0  0  0  0
 10 24  1  0  0  0  0
 10 39  1  0  0  0  0
 11 12  1  0  0  0  0
 11 44  1  0  0  0  0
 12 13  2  0  0  0  0
 12 50  1  0  0  0  0
 13 23  1  0  0  0  0
 13 40  1  0  0  0  0
 14 15  1  0  0  0  0
 15 16  1  0  0  0  0
 15 17  2  0  0  0  0
 17 18  1  0  0  0  0
 17 20  1  0  0  0  0
 19 20  1  0  0  0  0
 19 41  1  0  0  0  0
 20 21  2  0  0  0  0
 22 23  1  0  0  0  0
 22 42  1  0  0  0  0
 23 24  2  0  0  0  0
 24 43  1  0  0  0  0
 44 45  2  0  0  0  0
 44 46  2  0  0  0  0
 44 47  1  0  0  0  0
 47 49  1  0  0  0  0
 47 48  1  0  0  0  0
 50 51  1  0  0  0  0
 51 52  1  0  0  0  0
 51 53  1  0  0  0  0
 51 54  1  0  0  0  0
M  END
$$$$
