1d
                    3D
 Schrodinger Suite 2022-3.
 52 54  0  0  1  0  0  0  0  0999 V2000
   16.2420  -15.9910   23.0510 N   0  3  0  0  0  0  0  0  0  0  0  0
   17.5700  -15.2130   23.1010 C   0  0  1  0  0  0  0  0  0  0  0  0
   17.3030  -13.7920   22.5350 C   0  0  0  0  0  0  0  0  0  0  0  0
   16.3100  -13.1540   22.8810 O   0  0  0  0  0  0  0  0  0  0  0  0
   18.0740  -15.1650   24.5570 C   0  0  0  0  0  0  0  0  0  0  0  0
   19.5050  -14.6920   24.6530 C   0  0  0  0  0  0  0  0  0  0  0  0
   20.5470  -15.4700   24.1220 C   0  0  0  0  0  0  0  0  0  0  0  0
   19.8100  -13.4980   25.3160 C   0  0  0  0  0  0  0  0  0  0  0  0
   21.8700  -15.0400   24.2400 C   0  0  0  0  0  0  0  0  0  0  0  0
   21.1350  -13.0600   25.4170 C   0  0  0  0  0  0  0  0  0  0  0  0
   22.1690  -13.8310   24.8810 C   0  0  0  0  0  0  0  0  0  0  0  0
   18.2030  -13.2690   21.6470 N   0  0  0  0  0  0  0  0  0  0  0  0
   17.9780  -11.9330   21.0080 C   0  0  2  0  0  0  0  0  0  0  0  0
   16.5480  -11.8520   20.4090 C   0  0  0  0  0  0  0  0  0  0  0  0
   16.0550  -12.7540   19.7460 O   0  0  0  0  0  0  0  0  0  0  0  0
   19.0510  -11.8330   19.9040 C   0  0  0  0  0  0  0  0  0  0  0  0
   20.1120  -12.9060   20.2130 C   0  0  0  0  0  0  0  0  0  0  0  0
   19.4260  -13.9470   21.1150 C   0  0  0  0  0  0  0  0  0  0  0  0
   15.9120  -10.6290   20.5730 N   0  0  0  0  0  0  0  0  0  0  0  0
   14.5000  -10.4380   20.1460 C   0  0  0  0  0  0  0  0  0  0  0  0
   13.5160  -10.4660   21.2920 C   0  0  0  0  0  0  0  0  0  0  0  0
   13.4690   -9.3760   22.1770 C   0  0  0  0  0  0  0  0  0  0  0  0
   12.5150   -9.3600   23.1900 C   0  0  0  0  0  0  0  0  0  0  0  0
   11.5890  -10.3910   23.3350 C   0  0  0  0  0  0  0  0  0  0  0  0
   11.6520  -11.4830   22.4610 C   0  0  0  0  0  0  0  0  0  0  0  0
   12.6140  -11.5270   21.4470 C   0  0  0  0  0  0  0  0  0  0  0  0
   14.1790   -8.5560   22.0580 H   0  0  0  0  0  0  0  0  0  0  0  0
   12.5460   -7.7680   24.5720 I   0  0  0  0  0  0  0  0  0  0  0  0
   10.8140  -10.3680   24.1120 H   0  0  0  0  0  0  0  0  0  0  0  0
   10.9430  -12.3100   22.5750 H   0  0  0  0  0  0  0  0  0  0  0  0
   12.6480  -12.3910   20.7780 H   0  0  0  0  0  0  0  0  0  0  0  0
   19.0150  -12.9180   25.7770 H   0  0  0  0  0  0  0  0  0  0  0  0
   21.3370  -12.1110   25.9200 H   0  0  0  0  0  0  0  0  0  0  0  0
   22.6690  -15.6630   23.8260 H   0  0  0  0  0  0  0  0  0  0  0  0
   23.2090  -13.5040   24.9620 H   0  0  0  0  0  0  0  0  0  0  0  0
   20.3220  -16.4160   23.6250 H   0  0  0  0  0  0  0  0  0  0  0  0
   16.3750  -16.9390   23.5130 H   0  0  0  0  0  0  0  0  0  0  0  0
   15.4700  -15.4440   23.5540 H   0  0  0  0  0  0  0  0  0  0  0  0
   15.9570  -16.1630   22.0460 H   0  0  0  0  0  0  0  0  0  0  0  0
   18.2980  -15.8060   22.4750 H   0  0  0  0  0  0  0  0  0  0  0  0
   18.0360  -16.2060   24.9880 H   0  0  0  0  0  0  0  0  0  0  0  0
   17.4030  -14.5130   25.1710 H   0  0  0  0  0  0  0  0  0  0  0  0
   18.1410  -11.1460   21.7930 H   0  0  0  0  0  0  0  0  0  0  0  0
   19.5160  -10.8280   19.9200 H   0  0  0  0  0  0  0  0  0  0  0  0
   18.6090  -12.0350   18.8990 H   0  0  0  0  0  0  0  0  0  0  0  0
   20.9860  -12.4620   20.7430 H   0  0  0  0  0  0  0  0  0  0  0  0
   20.4770  -13.3930   19.2760 H   0  0  0  0  0  0  0  0  0  0  0  0
   19.1370  -14.8540   20.5240 H   0  0  0  0  0  0  0  0  0  0  0  0
   20.0960  -14.2440   21.9630 H   0  0  0  0  0  0  0  0  0  0  0  0
   16.2840   -9.9270   21.2350 H   0  0  0  0  0  0  0  0  0  0  0  0
   14.2400  -11.2250   19.3820 H   0  0  0  0  0  0  0  0  0  0  0  0
   14.4380   -9.4280   19.6510 H   0  0  0  0  0  0  0  0  0  0  0  0
  1  2  1  0  0  0  0
  1 37  1  0  0  0  0
  1 38  1  0  0  0  0
  1 39  1  0  0  0  0
  2  3  1  0  0  0  0
  2  5  1  0  0  0  0
  2 40  1  0  0  0  0
  3  4  2  0  0  0  0
  3 12  1  0  0  0  0
  5  6  1  0  0  0  0
  5 41  1  0  0  0  0
  5 42  1  0  0  0  0
  6  7  2  0  0  0  0
  6  8  1  0  0  0  0
  7  9  1  0  0  0  0
  7 36  1  0  0  0  0
  8 10  2  0  0  0  0
  8 32  1  0  0  0  0
  9 11  2  0  0  0  0
  9 34  1  0  0  0  0
 10 11  1  0  0  0  0
 10 33  1  0  0  0  0
 11 35  1  0  0  0  0
 12 13  1  0  0  0  0
 12 18  1  0  0  0  0
 13 14  1  0  0  0  0
 13 16  1  0  0  0  0
 13 43  1  0  0  0  0
 14 15  2  0  0  0  0
 14 19  1  0  0  0  0
 16 17  1  0  0  0  0
 16 44  1  0  0  0  0
 16 45  1  0  0  0  0
 17 18  1  0  0  0  0
 17 46  1  0  0  0  0
 17 47  1  0  0  0  0
 18 48  1  0  0  0  0
 18 49  1  0  0  0  0
 19 20  1  0  0  0  0
 19 50  1  0  0  0  0
 20 21  1  0  0  0  0
 20 51  1  0  0  0  0
 20 52  1  0  0  0  0
 21 22  2  0  0  0  0
 21 26  1  0  0  0  0
 22 23  1  0  0  0  0
 22 27  1  0  0  0  0
 23 24  2  0  0  0  0
 23 28  1  0  0  0  0
 24 25  1  0  0  0  0
 24 29  1  0  0  0  0
 25 26  2  0  0  0  0
 25 30  1  0  0  0  0
 26 31  1  0  0  0  0
M  CHG  1   1   1
M  END
$$$$
