18626-1
 OpenBabel02232411163D
Structure written by MMmdl.
 38 39  0  0  0  0  0  0  0  0999 V2000
   24.5100   10.9700   30.8080 C   0  0  0  0  0  0  0  0  0  0  0  0
   23.1810   11.2200   30.1280 C   0  0  0  0  0  0  0  0  0  0  0  0
   22.0910   11.2580   31.1270 O   0  0  0  0  0  0  0  0  0  0  0  0
   21.5130   10.1030   31.5250 C   0  0  0  0  0  0  0  0  0  0  0  0
   21.9970    8.9180   31.0850 N   0  0  0  0  0  0  0  0  0  0  0  0
   21.3060    7.7710   31.4460 C   0  0  0  0  0  0  0  0  0  0  0  0
   20.1710    7.7950   32.2480 C   0  0  0  0  0  0  0  0  0  0  0  0
   19.6730    9.0430   32.7120 C   0  0  0  0  0  0  0  0  0  0  0  0
   18.5300    9.0820   33.4690 N   0  0  0  0  0  0  0  0  0  0  0  0
   20.3610   10.2470   32.3560 C   0  0  0  0  0  0  0  0  0  0  0  0
   19.9470   11.5420   32.7320 C   0  0  0  0  0  0  0  0  0  0  0  0
   19.6590   12.6330   33.0000 N   0  0  0  0  0  0  0  0  0  0  0  0
   21.8950    6.6110   30.8830 N   0  0  0  0  0  0  0  0  0  0  0  0
   21.3740    5.2950   30.8940 C   0  0  0  0  0  0  0  0  0  0  0  0
   20.3370    5.0070   31.4530 O   0  0  0  0  0  0  0  0  0  0  0  0
   22.2060    4.3110   30.0830 C   0  0  0  0  0  0  0  0  0  0  0  0
   23.5340    3.9990   30.7190 C   0  0  0  0  0  0  0  0  0  0  0  0
   24.6660    4.7700   30.4090 C   0  0  0  0  0  0  0  0  0  0  0  0
   25.8820    4.4590   31.0200 C   0  0  0  0  0  0  0  0  0  0  0  0
   27.2700    5.4080   30.6310 Cl  0  0  0  0  0  0  0  0  0  0  0  0
   26.0140    3.4050   31.9260 C   0  0  0  0  0  0  0  0  0  0  0  0
   24.8840    2.6330   32.2120 C   0  0  0  0  0  0  0  0  0  0  0  0
   23.6550    2.9210   31.6090 C   0  0  0  0  0  0  0  0  0  0  0  0
   25.3150   10.9180   30.0330 H   0  0  0  0  0  0  0  0  0  0  0  0
   24.7550   11.7880   31.5190 H   0  0  0  0  0  0  0  0  0  0  0  0
   24.5060    9.9990   31.3560 H   0  0  0  0  0  0  0  0  0  0  0  0
   23.0960   12.2600   29.7270 H   0  0  0  0  0  0  0  0  0  0  0  0
   22.9510   10.4590   29.3500 H   0  0  0  0  0  0  0  0  0  0  0  0
   19.6440    6.8750   32.5100 H   0  0  0  0  0  0  0  0  0  0  0  0
   18.0330    8.2110   33.7380 H   0  0  0  0  0  0  0  0  0  0  0  0
   18.1260    9.9670   33.7760 H   0  0  0  0  0  0  0  0  0  0  0  0
   22.7760    6.7840   30.3580 H   0  0  0  0  0  0  0  0  0  0  0  0
   21.6180    3.3610   29.9710 H   0  0  0  0  0  0  0  0  0  0  0  0
   22.3670    4.7360   29.0560 H   0  0  0  0  0  0  0  0  0  0  0  0
   24.6140    5.5930   29.6910 H   0  0  0  0  0  0  0  0  0  0  0  0
   26.9750    3.1780   32.3970 H   0  0  0  0  0  0  0  0  0  0  0  0
   24.9650    1.7910   32.9080 H   0  0  0  0  0  0  0  0  0  0  0  0
   22.7960    2.2830   31.8310 H   0  0  0  0  0  0  0  0  0  0  0  0
  1  2  1  0  0  0  0
  1 24  1  0  0  0  0
  1 25  1  0  0  0  0
  1 26  1  0  0  0  0
  2  3  1  0  0  0  0
  2 27  1  0  0  0  0
  2 28  1  0  0  0  0
  3  4  1  0  0  0  0
  4 10  2  0  0  0  0
  4  5  1  0  0  0  0
  5  6  2  0  0  0  0
  6  7  1  0  0  0  0
  6 13  1  0  0  0  0
  7  8  2  0  0  0  0
  7 29  1  0  0  0  0
  8  9  1  0  0  0  0
  8 10  1  0  0  0  0
  9 30  1  0  0  0  0
  9 31  1  0  0  0  0
 10 11  1  0  0  0  0
 11 12  3  0  0  0  0
 13 14  1  0  0  0  0
 13 32  1  0  0  0  0
 14 15  2  0  0  0  0
 14 16  1  0  0  0  0
 16 17  1  0  0  0  0
 16 33  1  0  0  0  0
 16 34  1  0  0  0  0
 17 23  2  0  0  0  0
 17 18  1  0  0  0  0
 18 19  2  0  0  0  0
 18 35  1  0  0  0  0
 19 20  1  0  0  0  0
 19 21  1  0  0  0  0
 21 22  2  0  0  0  0
 21 36  1  0  0  0  0
 22 23  1  0  0  0  0
 22 37  1  0  0  0  0
 23 38  1  0  0  0  0
M  END
$$$$
