CAT-17e
 OpenBabel02232411143D
Structure written by MMmdl.
 46 49  0  0  1  0  0  0  0  0999 V2000
   12.2660    4.1370   -5.4070 C   0  0  0  0  0  0  0  0  0  0  0  0
   12.7630    4.7950   -4.2090 O   0  0  0  0  0  0  0  0  0  0  0  0
   13.5780    4.0850   -3.3760 C   0  0  0  0  0  0  0  0  0  0  0  0
   13.9520    4.8170   -2.2020 C   0  0  0  0  0  0  0  0  0  0  0  0
   14.7380    4.2810   -1.2580 N   0  0  0  0  0  0  0  0  0  0  0  0
   15.1690    2.9950   -1.4150 C   0  0  0  0  0  0  0  0  0  0  0  0
   14.8430    2.2220   -2.5410 C   0  0  0  0  0  0  0  0  0  0  0  0
   15.3210    0.8260   -2.6550 C   0  0  0  0  0  0  0  0  0  0  0  0
   16.2070    0.4490   -3.6780 C   0  0  0  0  0  0  0  0  0  0  0  0
   16.6840   -0.8620   -3.7410 C   0  0  0  0  0  0  0  0  0  0  0  0
   16.2530   -1.8190   -2.8170 C   0  0  0  0  0  0  0  0  0  0  0  0
   15.3230   -1.4620   -1.8330 C   0  0  0  0  0  0  0  0  0  0  0  0
   14.7620   -2.5010   -0.8880 C   0  0  1  0  0  0  0  0  0  0  0  0
   15.0040   -3.9480   -1.2920 C   0  0  0  0  0  0  0  0  0  0  0  0
   16.2480   -4.6930   -0.8380 C   0  0  0  0  0  0  0  0  0  0  0  0
   14.8990   -5.0780   -0.2730 C   0  0  0  0  0  0  0  0  0  0  0  0
   15.2180   -2.1970    0.5200 N   0  3  0  0  0  0  0  0  0  0  0  0
   14.1350   -2.3170    1.4030 C   0  0  0  0  0  0  0  0  0  0  0  0
   14.2950   -2.4630    2.7500 N   0  0  0  0  0  0  0  0  0  0  0  0
   12.9390   -2.3060    0.6940 N   0  0  0  0  0  0  0  0  0  0  0  0
   11.6010   -2.4460    1.3060 C   0  0  0  0  0  0  0  0  0  0  0  0
   13.2070   -2.3640   -0.7620 C   0  0  0  0  0  0  0  0  0  0  0  0
   12.3330   -2.3100   -1.5650 O   0  0  0  0  0  0  0  0  0  0  0  0
   14.8810   -0.1340   -1.7320 C   0  0  0  0  0  0  0  0  0  0  0  0
   14.0410    2.7810   -3.5530 C   0  0  0  0  0  0  0  0  0  0  0  0
   11.6460    4.9490   -5.8610 H   0  0  0  0  0  0  0  0  0  0  0  0
   13.1110    3.8570   -6.0690 H   0  0  0  0  0  0  0  0  0  0  0  0
   11.6430    3.2600   -5.1320 H   0  0  0  0  0  0  0  0  0  0  0  0
   13.5780    5.8420   -2.0510 H   0  0  0  0  0  0  0  0  0  0  0  0
   15.7830    2.5750   -0.6050 H   0  0  0  0  0  0  0  0  0  0  0  0
   16.5290    1.1780   -4.4280 H   0  0  0  0  0  0  0  0  0  0  0  0
   17.3980   -1.1500   -4.5200 H   0  0  0  0  0  0  0  0  0  0  0  0
   16.6440   -2.8380   -2.8660 H   0  0  0  0  0  0  0  0  0  0  0  0
   14.6350   -4.1540   -2.3140 H   0  0  0  0  0  0  0  0  0  0  0  0
   16.7580   -5.3370   -1.5550 H   0  0  0  0  0  0  0  0  0  0  0  0
   16.9700   -4.1860   -0.1950 H   0  0  0  0  0  0  0  0  0  0  0  0
   14.6850   -4.8450    0.7770 H   0  0  0  0  0  0  0  0  0  0  0  0
   14.4220   -6.0150   -0.5880 H   0  0  0  0  0  0  0  0  0  0  0  0
   16.1560   -2.5500    0.8610 H   0  0  0  0  0  0  0  0  0  0  0  0
   13.5820   -2.0890    3.4270 H   0  0  0  0  0  0  0  0  0  0  0  0
   11.0610   -3.3070    0.8240 H   0  0  0  0  0  0  0  0  0  0  0  0
   11.6800   -2.6550    2.4050 H   0  0  0  0  0  0  0  0  0  0  0  0
   11.0220   -1.4970    1.1490 H   0  0  0  0  0  0  0  0  0  0  0  0
   14.1970    0.1510   -0.9320 H   0  0  0  0  0  0  0  0  0  0  0  0
   13.7950    2.1860   -4.4360 H   0  0  0  0  0  0  0  0  0  0  0  0
   15.2780   -2.3940    3.1430 H   0  0  0  0  0  0  0  0  0  0  0  0
  1  2  1  0  0  0  0
  1 26  1  0  0  0  0
  1 27  1  0  0  0  0
  1 28  1  0  0  0  0
  2  3  1  0  0  0  0
  3  4  2  0  0  0  0
  3 25  1  0  0  0  0
  4  5  1  0  0  0  0
  4 29  1  0  0  0  0
  5  6  2  0  0  0  0
  6  7  1  0  0  0  0
  6 30  1  0  0  0  0
  7  8  1  0  0  0  0
  7 25  2  0  0  0  0
  8  9  2  0  0  0  0
  8 24  1  0  0  0  0
  9 10  1  0  0  0  0
  9 31  1  0  0  0  0
 10 11  2  0  0  0  0
 10 32  1  0  0  0  0
 11 12  1  0  0  0  0
 11 33  1  0  0  0  0
 12 24  2  0  0  0  0
 13 12  1  6  0  0  0
 13 14  1  0  0  0  0
 13 17  1  0  0  0  0
 13 22  1  0  0  0  0
 14 15  1  0  0  0  0
 14 16  1  0  0  0  0
 14 34  1  0  0  0  0
 15 16  1  0  0  0  0
 15 35  1  0  0  0  0
 15 36  1  0  0  0  0
 16 37  1  0  0  0  0
 16 38  1  0  0  0  0
 17 18  2  0  0  0  0
 17 39  1  0  0  0  0
 18 19  1  0  0  0  0
 18 20  1  0  0  0  0
 19 40  1  0  0  0  0
 19 46  1  0  0  0  0
 20 21  1  0  0  0  0
 20 22  1  0  0  0  0
 21 41  1  0  0  0  0
 21 42  1  0  0  0  0
 21 43  1  0  0  0  0
 22 23  2  0  0  0  0
 24 44  1  0  0  0  0
 25 45  1  0  0  0  0
M  CHG  1  17   1
M  END
$$$$
