45
 OpenBabel02232411163D
Structure written by MMmdl.
 48 51  0  0  0  0  0  0  0  0999 V2000
    3.5720  -49.7860    5.9140 O   0  0  0  0  0  0  0  0  0  0  0  0
    2.8290  -48.9470    6.4620 C   0  0  0  0  0  0  0  0  0  0  0  0
    3.1850  -47.9190    7.0530 O   0  5  0  0  0  0  0  0  0  0  0  0
    1.3270  -49.2960    6.3980 C   0  0  0  0  0  0  0  0  0  0  0  0
   -0.4530  -50.7310    6.5610 C   0  0  0  0  0  0  0  0  0  0  0  0
   -1.3120  -51.8240    6.7720 C   0  0  0  0  0  0  0  0  0  0  0  0
   -2.6580  -51.6410    6.4950 C   0  0  0  0  0  0  0  0  0  0  0  0
   -3.1490  -50.4030    6.0180 C   0  0  0  0  0  0  0  0  0  0  0  0
   -2.3070  -49.3180    5.8130 C   0  0  0  0  0  0  0  0  0  0  0  0
   -0.9360  -49.4590    6.0850 C   0  0  0  0  0  0  0  0  0  0  0  0
    0.2070  -48.5740    6.0020 C   0  0  0  0  0  0  0  0  0  0  0  0
    0.1060  -47.1620    5.5480 C   0  0  0  0  0  0  0  0  0  0  0  0
    0.0590  -46.1410    6.6980 C   0  0  0  0  0  0  0  0  0  0  0  0
   -1.1330  -46.2770    7.6410 C   0  0  0  0  0  0  0  0  0  0  0  0
   -2.2970  -45.6850    6.9520 O   0  0  0  0  0  0  0  0  0  0  0  0
   -3.5000  -45.7260    7.6110 C   0  0  0  0  0  0  0  0  0  0  0  0
   -6.0460  -45.7250    8.7520 C   0  0  0  0  0  0  0  0  0  0  0  0
   -4.9920  -46.3580    9.3990 C   0  0  0  0  0  0  0  0  0  0  0  0
   -3.7130  -46.3770    8.8350 C   0  0  0  0  0  0  0  0  0  0  0  0
   -0.9410  -52.7810    7.1410 H   0  0  0  0  0  0  0  0  0  0  0  0
   -3.3620  -52.4610    6.6460 H   0  0  0  0  0  0  0  0  0  0  0  0
   -4.2160  -50.3080    5.8110 H   0  0  0  0  0  0  0  0  0  0  0  0
   -2.7120  -48.3720    5.4510 H   0  0  0  0  0  0  0  0  0  0  0  0
   -0.8300  -47.0460    4.9420 H   0  0  0  0  0  0  0  0  0  0  0  0
    0.9790  -46.9020    4.9010 H   0  0  0  0  0  0  0  0  0  0  0  0
    0.0480  -45.1170    6.2640 H   0  0  0  0  0  0  0  0  0  0  0  0
    0.9790  -46.2640    7.3240 H   0  0  0  0  0  0  0  0  0  0  0  0
   -0.9850  -45.6610    8.5550 H   0  0  0  0  0  0  0  0  0  0  0  0
   -1.3820  -47.3370    7.8520 H   0  0  0  0  0  0  0  0  0  0  0  0
   -2.9230  -46.8990    9.3640 H   0  0  0  0  0  0  0  0  0  0  0  0
   -5.8410  -45.1070    7.5010 C   0  0  0  0  0  0  0  0  0  0  0  0
   -4.5610  -45.0540    6.9400 C   0  0  0  0  0  0  0  0  0  0  0  0
   -4.2840  -44.3600    5.6380 C   0  0  0  0  0  0  0  0  0  0  0  0
   -5.4880  -43.5960    5.0670 C   0  0  0  0  0  0  0  0  0  0  0  0
   -6.7990  -44.3590    5.2820 C   0  0  0  0  0  0  0  0  0  0  0  0
   -7.0460  -44.5500    6.7860 C   0  0  0  0  0  0  0  0  0  0  0  0
   -5.1720  -46.8600   10.3500 H   0  0  0  0  0  0  0  0  0  0  0  0
   -7.0390  -45.7190    9.1950 H   0  0  0  0  0  0  0  0  0  0  0  0
   -3.9470  -45.1200    4.8920 H   0  0  0  0  0  0  0  0  0  0  0  0
   -3.4590  -43.6250    5.7840 H   0  0  0  0  0  0  0  0  0  0  0  0
   -5.5730  -42.6140    5.5810 H   0  0  0  0  0  0  0  0  0  0  0  0
   -5.3150  -43.4180    3.9850 H   0  0  0  0  0  0  0  0  0  0  0  0
   -6.7450  -45.3540    4.7830 H   0  0  0  0  0  0  0  0  0  0  0  0
   -7.6490  -43.7990    4.8370 H   0  0  0  0  0  0  0  0  0  0  0  0
   -7.3190  -43.5710    7.2460 H   0  0  0  0  0  0  0  0  0  0  0  0
   -7.9090  -45.2490    6.9200 H   0  0  0  0  0  0  0  0  0  0  0  0
    0.9320  -50.6040    6.7510 N   0  0  0  0  0  0  0  0  0  0  0  0
    1.5270  -51.3660    7.0540 H   0  0  0  0  0  0  0  0  0  0  0  0
  1  2  2  0  0  0  0
  2  3  1  0  0  0  0
  2  4  1  0  0  0  0
  4 11  2  0  0  0  0
  4 47  1  0  0  0  0
  5  6  2  0  0  0  0
  5 10  1  0  0  0  0
  5 47  1  0  0  0  0
  6  7  1  0  0  0  0
  6 20  1  0  0  0  0
  7  8  2  0  0  0  0
  7 21  1  0  0  0  0
  8  9  1  0  0  0  0
  8 22  1  0  0  0  0
  9 10  2  0  0  0  0
  9 23  1  0  0  0  0
 10 11  1  0  0  0  0
 11 12  1  0  0  0  0
 12 24  1  0  0  0  0
 12 25  1  0  0  0  0
 12 13  1  0  0  0  0
 13 14  1  0  0  0  0
 13 26  1  0  0  0  0
 13 27  1  0  0  0  0
 14 15  1  0  0  0  0
 14 28  1  0  0  0  0
 14 29  1  0  0  0  0
 15 16  1  0  0  0  0
 16 19  2  0  0  0  0
 16 32  1  0  0  0  0
 17 18  2  0  0  0  0
 17 31  1  0  0  0  0
 17 38  1  0  0  0  0
 18 19  1  0  0  0  0
 18 37  1  0  0  0  0
 19 30  1  0  0  0  0
 31 32  2  0  0  0  0
 31 36  1  0  0  0  0
 32 33  1  0  0  0  0
 33 34  1  0  0  0  0
 33 39  1  0  0  0  0
 33 40  1  0  0  0  0
 34 35  1  0  0  0  0
 34 41  1  0  0  0  0
 34 42  1  0  0  0  0
 35 36  1  0  0  0  0
 35 43  1  0  0  0  0
 35 44  1  0  0  0  0
 36 45  1  0  0  0  0
 36 46  1  0  0  0  0
 47 48  1  0  0  0  0
M  CHG  1   3  -1
M  END
$$$$
