p38a_2n
 OpenBabel02232411163D
Structure written by MMmdl.
 53 56  0  0  0  0  0  0  0  0999 V2000
   36.3720   36.0880   15.7470 C   0  0  0  0  0  0  0  0  0  0  0  0
   34.6260   34.9680   21.2710 C   0  0  0  0  0  0  0  0  0  0  0  0
   35.7420   35.5920   16.8830 C   0  0  0  0  0  0  0  0  0  0  0  0
   33.9440   39.0330   23.8080 C   0  0  0  0  0  0  0  0  0  0  0  0
   34.7870   37.8230   21.4760 C   0  0  0  0  0  0  0  0  0  0  0  0
   35.2780   37.1780   20.2870 C   0  0  0  0  0  0  0  0  0  0  0  0
   37.6640   36.6010   15.9230 C   0  0  0  0  0  0  0  0  0  0  0  0
   38.3300   36.6060   17.1510 C   0  0  0  0  0  0  0  0  0  0  0  0
   37.6590   36.1380   18.2870 C   0  0  0  0  0  0  0  0  0  0  0  0
   34.3400   37.0550   22.5930 C   0  0  0  0  0  0  0  0  0  0  0  0
   34.7460   39.2370   21.6070 C   0  0  0  0  0  0  0  0  0  0  0  0
   35.2260   35.8290   20.2150 C   0  0  0  0  0  0  0  0  0  0  0  0
   36.3650   35.6300   18.1480 C   0  0  0  0  0  0  0  0  0  0  0  0
   34.5320   35.0540   16.8040 F   0  0  0  0  0  0  0  0  0  0  0  0
   35.6660   35.0010   19.1850 O   0  0  0  0  0  0  0  0  0  0  0  0
   34.3430   39.8520   22.7260 N   0  0  0  0  0  0  0  0  0  0  0  0
   34.4030   33.7840   21.1580 O   0  0  0  0  0  0  0  0  0  0  0  0
   34.3270   35.6500   22.5070 N   0  0  0  0  0  0  0  0  0  0  0  0
   33.9200   37.6530   23.7580 N   0  0  0  0  0  0  0  0  0  0  0  0
   33.5640   39.7220   24.9340 N   0  0  0  0  0  0  0  0  0  0  0  0
   35.8790   36.0990   14.7720 H   0  0  0  0  0  0  0  0  0  0  0  0
   35.6840   37.8060   19.4910 H   0  0  0  0  0  0  0  0  0  0  0  0
   39.3460   36.9980   17.2380 H   0  0  0  0  0  0  0  0  0  0  0  0
   38.1450   36.1980   19.2640 H   0  0  0  0  0  0  0  0  0  0  0  0
   35.0490   39.8790   20.7630 H   0  0  0  0  0  0  0  0  0  0  0  0
   33.6280   40.7610   24.9200 H   0  0  0  0  0  0  0  0  0  0  0  0
   38.2680   37.1430   14.8680 F   0  0  0  0  0  0  0  0  0  0  0  0
   33.4990   37.8300   28.2880 C   0  0  0  0  0  0  0  0  0  0  0  0
   34.0790   38.2830   26.9410 C   0  0  0  0  0  0  0  0  0  0  0  0
   33.0530   39.1830   26.2270 C   0  0  0  0  0  0  0  0  0  0  0  0
   31.7090   38.4440   26.0740 C   0  0  0  0  0  0  0  0  0  0  0  0
   31.2290   37.9760   27.4540 C   0  0  0  0  0  0  0  0  0  0  0  0
   32.2220   37.1720   28.1310 O   0  0  0  0  0  0  0  0  0  0  0  0
   33.3770   38.6930   28.9820 H   0  0  0  0  0  0  0  0  0  0  0  0
   34.1230   37.0260   28.7430 H   0  0  0  0  0  0  0  0  0  0  0  0
   34.3130   37.3890   26.3140 H   0  0  0  0  0  0  0  0  0  0  0  0
   35.0270   38.8470   27.1150 H   0  0  0  0  0  0  0  0  0  0  0  0
   32.8850   40.1090   26.8580 H   0  0  0  0  0  0  0  0  0  0  0  0
   30.9470   39.1240   25.6250 H   0  0  0  0  0  0  0  0  0  0  0  0
   31.8350   37.5590   25.4030 H   0  0  0  0  0  0  0  0  0  0  0  0
   30.9660   38.8400   28.1040 H   0  0  0  0  0  0  0  0  0  0  0  0
   30.3780   37.2610   27.3620 H   0  0  0  0  0  0  0  0  0  0  0  0
   33.9210   34.8070   23.6800 C   0  0  0  0  0  0  0  0  0  0  0  0
   34.5130   33.8510   23.6270 H   0  0  0  0  0  0  0  0  0  0  0  0
   34.1920   35.3470   24.6290 H   0  0  0  0  0  0  0  0  0  0  0  0
   32.4170   34.4950   23.6680 C   0  0  0  0  0  0  0  0  0  0  0  0
   31.8510   35.3900   24.0330 H   0  0  0  0  0  0  0  0  0  0  0  0
   32.0690   34.2630   22.6340 H   0  0  0  0  0  0  0  0  0  0  0  0
   32.0820   33.3050   24.5790 C   0  0  0  0  0  0  0  0  0  0  0  0
   32.6080   33.3770   25.5590 H   0  0  0  0  0  0  0  0  0  0  0  0
   30.9770   33.2340   24.7280 H   0  0  0  0  0  0  0  0  0  0  0  0
   32.4140   32.0540   23.9490 O   0  0  0  0  0  0  0  0  0  0  0  0
   33.4020   31.8900   24.0730 H   0  0  0  0  0  0  0  0  0  0  0  0
  1  3  2  0  0  0  0
  1  7  1  0  0  0  0
  1 21  1  0  0  0  0
  2 12  1  0  0  0  0
  2 17  2  0  0  0  0
  2 18  1  0  0  0  0
  3 13  1  0  0  0  0
  3 14  1  0  0  0  0
  4 16  2  0  0  0  0
  4 19  1  0  0  0  0
  4 20  1  0  0  0  0
  5  6  1  0  0  0  0
  5 10  1  0  0  0  0
  5 11  2  0  0  0  0
  6 12  2  0  0  0  0
  6 22  1  0  0  0  0
  7  8  2  0  0  0  0
  7 27  1  0  0  0  0
  8  9  1  0  0  0  0
  8 23  1  0  0  0  0
  9 13  2  0  0  0  0
  9 24  1  0  0  0  0
 10 18  1  0  0  0  0
 10 19  2  0  0  0  0
 11 16  1  0  0  0  0
 11 25  1  0  0  0  0
 12 15  1  0  0  0  0
 13 15  1  0  0  0  0
 18 43  1  0  0  0  0
 20 26  1  0  0  0  0
 20 30  1  0  0  0  0
 28 29  1  0  0  0  0
 28 33  1  0  0  0  0
 28 34  1  0  0  0  0
 28 35  1  0  0  0  0
 29 30  1  0  0  0  0
 29 36  1  0  0  0  0
 29 37  1  0  0  0  0
 30 31  1  0  0  0  0
 30 38  1  0  0  0  0
 31 32  1  0  0  0  0
 31 39  1  0  0  0  0
 31 40  1  0  0  0  0
 32 33  1  0  0  0  0
 32 41  1  0  0  0  0
 32 42  1  0  0  0  0
 43 44  1  0  0  0  0
 43 45  1  0  0  0  0
 43 46  1  0  0  0  0
 46 47  1  0  0  0  0
 46 48  1  0  0  0  0
 46 49  1  0  0  0  0
 49 50  1  0  0  0  0
 49 51  1  0  0  0  0
 49 52  1  0  0  0  0
 52 53  1  0  0  0  0
M  END
$$$$
