p38a_2aa
 OpenBabel02232411163D
Structure written by MMmdl.
 43 45  0  0  0  0  0  0  0  0999 V2000
   36.3760   36.1060   15.7180 C   0  0  0  0  0  0  0  0  0  0  0  0
   34.5690   34.9720   21.2050 C   0  0  0  0  0  0  0  0  0  0  0  0
   35.7420   35.6010   16.8490 C   0  0  0  0  0  0  0  0  0  0  0  0
   33.9440   39.0430   23.7460 C   0  0  0  0  0  0  0  0  0  0  0  0
   32.9450   39.0760   26.1020 C   0  0  0  0  0  0  0  0  0  0  0  0
   34.8020   37.8370   21.4160 C   0  0  0  0  0  0  0  0  0  0  0  0
   35.2970   37.1740   20.2400 C   0  0  0  0  0  0  0  0  0  0  0  0
   37.6710   36.6100   15.9010 C   0  0  0  0  0  0  0  0  0  0  0  0
   38.3360   36.5990   17.1300 C   0  0  0  0  0  0  0  0  0  0  0  0
   37.6630   36.1210   18.2590 C   0  0  0  0  0  0  0  0  0  0  0  0
   34.2900   37.0710   22.5040 C   0  0  0  0  0  0  0  0  0  0  0  0
   34.8120   39.2490   21.5750 C   0  0  0  0  0  0  0  0  0  0  0  0
   35.2120   35.8260   20.1680 C   0  0  0  0  0  0  0  0  0  0  0  0
   36.3660   35.6210   18.1130 C   0  0  0  0  0  0  0  0  0  0  0  0
   33.6780   34.9030   23.5690 C   0  0  0  0  0  0  0  0  0  0  0  0
   34.5280   35.0740   16.7620 F   0  0  0  0  0  0  0  0  0  0  0  0
   35.6630   34.9920   19.1480 O   0  0  0  0  0  0  0  0  0  0  0  0
   34.4040   39.8640   22.6960 N   0  0  0  0  0  0  0  0  0  0  0  0
   34.3570   33.7840   21.1040 O   0  0  0  0  0  0  0  0  0  0  0  0
   34.1870   35.6760   22.4010 N   0  0  0  0  0  0  0  0  0  0  0  0
   33.8640   37.6670   23.6660 N   0  0  0  0  0  0  0  0  0  0  0  0
   33.5060   39.6930   24.8740 N   0  0  0  0  0  0  0  0  0  0  0  0
   35.8830   36.1300   14.7440 H   0  0  0  0  0  0  0  0  0  0  0  0
   31.8330   38.0140   25.8650 C   0  0  0  0  0  0  0  0  0  0  0  0
   35.7380   37.7890   19.4520 H   0  0  0  0  0  0  0  0  0  0  0  0
   39.3530   36.9870   17.2230 H   0  0  0  0  0  0  0  0  0  0  0  0
   38.1460   36.1670   19.2380 H   0  0  0  0  0  0  0  0  0  0  0  0
   35.1600   39.8910   20.7490 H   0  0  0  0  0  0  0  0  0  0  0  0
   34.2490   35.1890   24.4950 H   0  0  0  0  0  0  0  0  0  0  0  0
   32.5920   35.1300   23.7370 H   0  0  0  0  0  0  0  0  0  0  0  0
   33.8050   33.8030   23.3930 H   0  0  0  0  0  0  0  0  0  0  0  0
   33.6400   40.7220   24.9440 H   0  0  0  0  0  0  0  0  0  0  0  0
   38.2780   37.1610   14.8520 F   0  0  0  0  0  0  0  0  0  0  0  0
   34.1010   38.4900   26.9630 C   0  0  0  0  0  0  0  0  0  0  0  0
   33.6790   38.3700   28.3290 O   0  0  0  0  0  0  0  0  0  0  0  0
   33.0380   37.6170   28.4140 H   0  0  0  0  0  0  0  0  0  0  0  0
   34.4480   37.5040   26.5800 H   0  0  0  0  0  0  0  0  0  0  0  0
   34.9470   39.2180   27.0280 H   0  0  0  0  0  0  0  0  0  0  0  0
   31.0490   38.2740   24.6970 O   0  0  0  0  0  0  0  0  0  0  0  0
   32.2740   36.9910   25.7870 H   0  0  0  0  0  0  0  0  0  0  0  0
   31.0850   38.0710   26.6930 H   0  0  0  0  0  0  0  0  0  0  0  0
   31.6230   38.0990   23.9190 H   0  0  0  0  0  0  0  0  0  0  0  0
   32.4890   39.9380   26.6770 H   0  0  0  0  0  0  0  0  0  0  0  0
  1  3  2  0  0  0  0
  1  8  1  0  0  0  0
  1 23  1  0  0  0  0
  2 13  1  0  0  0  0
  2 19  2  0  0  0  0
  2 20  1  0  0  0  0
  3 14  1  0  0  0  0
  3 16  1  0  0  0  0
  4 18  2  0  0  0  0
  4 21  1  0  0  0  0
  4 22  1  0  0  0  0
  5 22  1  0  0  0  0
  5 24  1  0  0  0  0
  5 34  1  0  0  0  0
  5 43  1  0  0  0  0
  6  7  1  0  0  0  0
  6 11  1  0  0  0  0
  6 12  2  0  0  0  0
  7 13  2  0  0  0  0
  7 25  1  0  0  0  0
  8  9  2  0  0  0  0
  8 33  1  0  0  0  0
  9 10  1  0  0  0  0
  9 26  1  0  0  0  0
 10 14  2  0  0  0  0
 10 27  1  0  0  0  0
 11 20  1  0  0  0  0
 11 21  2  0  0  0  0
 12 18  1  0  0  0  0
 12 28  1  0  0  0  0
 13 17  1  0  0  0  0
 14 17  1  0  0  0  0
 15 20  1  0  0  0  0
 15 29  1  0  0  0  0
 15 30  1  0  0  0  0
 15 31  1  0  0  0  0
 22 32  1  0  0  0  0
 24 39  1  0  0  0  0
 24 40  1  0  0  0  0
 24 41  1  0  0  0  0
 34 35  1  0  0  0  0
 34 37  1  0  0  0  0
 34 38  1  0  0  0  0
 35 36  1  0  0  0  0
 39 42  1  0  0  0  0
M  END
$$$$
