18628-1
 OpenBabel02232411163D
Structure written by MMmdl.
 41 42  0  0  0  0  0  0  0  0999 V2000
   23.1930   10.8370   29.0950 C   0  0  0  0  0  0  0  0  0  0  0  0
   23.4450   11.0860   30.5670 C   0  0  0  0  0  0  0  0  0  0  0  0
   22.1690   11.1590   31.3110 O   0  0  0  0  0  0  0  0  0  0  0  0
   21.5310   10.0180   31.6510 C   0  0  0  0  0  0  0  0  0  0  0  0
   22.0180    8.8260   31.2390 N   0  0  0  0  0  0  0  0  0  0  0  0
   21.2890    7.6890   31.5520 C   0  0  0  0  0  0  0  0  0  0  0  0
   20.1190    7.7280   32.3030 C   0  0  0  0  0  0  0  0  0  0  0  0
   19.6260    8.9830   32.7540 C   0  0  0  0  0  0  0  0  0  0  0  0
   18.4660    9.0330   33.4840 N   0  0  0  0  0  0  0  0  0  0  0  0
   20.3390   10.1790   32.4200 C   0  0  0  0  0  0  0  0  0  0  0  0
   19.9230   11.4810   32.7720 C   0  0  0  0  0  0  0  0  0  0  0  0
   19.6340   12.5760   33.0210 N   0  0  0  0  0  0  0  0  0  0  0  0
   21.8800    6.5320   30.9910 N   0  0  0  0  0  0  0  0  0  0  0  0
   21.3040    5.2420   30.8770 C   0  0  0  0  0  0  0  0  0  0  0  0
   20.2520    4.9540   31.4060 O   0  0  0  0  0  0  0  0  0  0  0  0
   22.0990    4.3010   29.9840 C   0  0  0  0  0  0  0  0  0  0  0  0
   23.3990    3.8810   30.6170 C   0  0  0  0  0  0  0  0  0  0  0  0
   24.6310    4.5150   30.3620 C   0  0  0  0  0  0  0  0  0  0  0  0
   24.8310    5.6220   29.3740 C   0  0  0  0  0  0  0  0  0  0  0  0
   25.7750    4.0870   31.0660 C   0  0  0  0  0  0  0  0  0  0  0  0
   25.7130    3.0400   31.9820 C   0  0  0  0  0  0  0  0  0  0  0  0
   24.4980    2.3800   32.1970 C   0  0  0  0  0  0  0  0  0  0  0  0
   23.3570    2.7950   31.5130 C   0  0  0  0  0  0  0  0  0  0  0  0
   24.1490   10.9760   28.5310 H   0  0  0  0  0  0  0  0  0  0  0  0
   22.8360    9.7960   28.9150 H   0  0  0  0  0  0  0  0  0  0  0  0
   22.4450   11.5500   28.6840 H   0  0  0  0  0  0  0  0  0  0  0  0
   23.8210   12.1200   30.7620 H   0  0  0  0  0  0  0  0  0  0  0  0
   24.0970   10.3070   31.0220 H   0  0  0  0  0  0  0  0  0  0  0  0
   19.5660    6.8170   32.5380 H   0  0  0  0  0  0  0  0  0  0  0  0
   18.0680    9.9220   33.7880 H   0  0  0  0  0  0  0  0  0  0  0  0
   17.9730    8.1650   33.7670 H   0  0  0  0  0  0  0  0  0  0  0  0
   22.8060    6.6980   30.5510 H   0  0  0  0  0  0  0  0  0  0  0  0
   22.2700    4.7990   28.9970 H   0  0  0  0  0  0  0  0  0  0  0  0
   21.4720    3.3900   29.7910 H   0  0  0  0  0  0  0  0  0  0  0  0
   25.1060    6.5690   29.9120 H   0  0  0  0  0  0  0  0  0  0  0  0
   25.6950    5.3730   28.7020 H   0  0  0  0  0  0  0  0  0  0  0  0
   23.9560    5.8250   28.7260 H   0  0  0  0  0  0  0  0  0  0  0  0
   26.7320    4.5870   30.8880 H   0  0  0  0  0  0  0  0  0  0  0  0
   26.6120    2.7300   32.5220 H   0  0  0  0  0  0  0  0  0  0  0  0
   24.4480    1.5400   32.8960 H   0  0  0  0  0  0  0  0  0  0  0  0
   22.4210    2.2570   31.6770 H   0  0  0  0  0  0  0  0  0  0  0  0
  1  2  1  0  0  0  0
  1 24  1  0  0  0  0
  1 25  1  0  0  0  0
  1 26  1  0  0  0  0
  2  3  1  0  0  0  0
  2 27  1  0  0  0  0
  2 28  1  0  0  0  0
  3  4  1  0  0  0  0
  4 10  2  0  0  0  0
  4  5  1  0  0  0  0
  5  6  2  0  0  0  0
  6  7  1  0  0  0  0
  6 13  1  0  0  0  0
  7  8  2  0  0  0  0
  7 29  1  0  0  0  0
  8  9  1  0  0  0  0
  8 10  1  0  0  0  0
  9 30  1  0  0  0  0
  9 31  1  0  0  0  0
 10 11  1  0  0  0  0
 11 12  3  0  0  0  0
 13 14  1  0  0  0  0
 13 32  1  0  0  0  0
 14 15  2  0  0  0  0
 14 16  1  0  0  0  0
 16 17  1  0  0  0  0
 16 33  1  0  0  0  0
 16 34  1  0  0  0  0
 17 23  2  0  0  0  0
 17 18  1  0  0  0  0
 18 19  1  0  0  0  0
 18 20  2  0  0  0  0
 19 35  1  0  0  0  0
 19 36  1  0  0  0  0
 19 37  1  0  0  0  0
 20 21  1  0  0  0  0
 20 38  1  0  0  0  0
 21 22  2  0  0  0  0
 21 39  1  0  0  0  0
 22 23  1  0  0  0  0
 22 40  1  0  0  0  0
 23 41  1  0  0  0  0
M  END
$$$$
