3flz
                    3D
 Schrodinger Suite 2022-3.
 46 49  0  0  1  0  0  0  0  0999 V2000
   27.1180    8.9610   30.4490 C   0  0  0  0  0  0  0  0  0  0  0  0
   28.4800    9.5440   30.8440 C   0  0  0  0  0  0  0  0  0  0  0  0
   28.5380    8.2530   32.8880 C   0  0  0  0  0  0  0  0  0  0  0  0
   27.1930    7.5880   32.5710 C   0  0  0  0  0  0  0  0  0  0  0  0
   15.9490   10.5850   31.7910 C   0  0  0  0  0  0  0  0  0  0  0  0
   29.2350    8.6420   31.6850 O   0  0  0  0  0  0  0  0  0  0  0  0
   21.2870   12.5780   31.2900 C   0  0  0  0  0  0  0  0  0  0  0  0
   17.2570   11.0670   31.8840 C   0  0  0  0  0  0  0  0  0  0  0  0
   23.9040    8.5150   31.0700 C   0  0  0  0  0  0  0  0  0  0  0  0
   26.3370    8.5480   31.7170 C   0  0  0  0  0  0  0  0  0  0  0  0
   21.4600    9.7480   30.7680 C   0  0  0  0  0  0  0  0  0  0  0  0
   20.1830   10.4020   30.6990 C   0  0  0  0  0  0  0  0  0  0  0  0
   15.1630   10.8670   30.6680 C   0  0  0  0  0  0  0  0  0  0  0  0
   15.6830   11.6400   29.6250 C   0  0  0  0  0  0  0  0  0  0  0  0
   16.9800   12.1560   29.7000 C   0  0  0  0  0  0  0  0  0  0  0  0
   22.6120   10.4770   31.1870 C   0  0  0  0  0  0  0  0  0  0  0  0
   21.6520    8.3820   30.4330 C   0  0  0  0  0  0  0  0  0  0  0  0
   20.1090   11.7270   30.9700 C   0  0  0  0  0  0  0  0  0  0  0  0
   17.7360   11.8640   30.8390 C   0  0  0  0  0  0  0  0  0  0  0  0
   23.7450   12.5850   31.8810 C   0  0  0  0  0  0  0  0  0  0  0  0
   18.9780   12.5280   30.9420 O   0  0  0  0  0  0  0  0  0  0  0  0
   22.8300    7.7550   30.5660 N   0  0  0  0  0  0  0  0  0  0  0  0
   21.2780   13.7820   31.4240 O   0  0  0  0  0  0  0  0  0  0  0  0
   22.5200   11.8530   31.4500 N   0  0  0  0  0  0  0  0  0  0  0  0
   23.8340    9.8690   31.3320 N   0  0  0  0  0  0  0  0  0  0  0  0
   25.0690    7.8410   31.3620 N   0  0  0  0  0  0  0  0  0  0  0  0
   15.0840   11.8270   28.7340 H   0  0  0  0  0  0  0  0  0  0  0  0
   17.3910   12.7490   28.8810 H   0  0  0  0  0  0  0  0  0  0  0  0
   15.5500    9.9590   32.5890 H   0  0  0  0  0  0  0  0  0  0  0  0
   19.3120    9.8020   30.4300 H   0  0  0  0  0  0  0  0  0  0  0  0
   20.8100    7.7910   30.0370 H   0  0  0  0  0  0  0  0  0  0  0  0
   27.2590    8.0680   29.7980 H   0  0  0  0  0  0  0  0  0  0  0  0
   26.5450    9.7300   29.8800 H   0  0  0  0  0  0  0  0  0  0  0  0
   28.3580   10.5150   31.3770 H   0  0  0  0  0  0  0  0  0  0  0  0
   29.1510    9.6470   29.9610 H   0  0  0  0  0  0  0  0  0  0  0  0
   29.2460    7.5270   33.3500 H   0  0  0  0  0  0  0  0  0  0  0  0
   28.3960    9.1510   33.5330 H   0  0  0  0  0  0  0  0  0  0  0  0
   26.6620    7.3440   33.5220 H   0  0  0  0  0  0  0  0  0  0  0  0
   27.3650    6.6340   32.0150 H   0  0  0  0  0  0  0  0  0  0  0  0
   26.0840    9.4630   32.3220 H   0  0  0  0  0  0  0  0  0  0  0  0
   24.5010   12.5910   31.0500 H   0  0  0  0  0  0  0  0  0  0  0  0
   24.2030   12.0700   32.7690 H   0  0  0  0  0  0  0  0  0  0  0  0
   23.4910   13.6400   32.1580 H   0  0  0  0  0  0  0  0  0  0  0  0
   25.1900    6.8700   31.0080 H   0  0  0  0  0  0  0  0  0  0  0  0
   17.8810   10.8030   32.7360 H   0  0  0  0  0  0  0  0  0  0  0  0
   14.1550   10.4630   30.5920 H   0  0  0  0  0  0  0  0  0  0  0  0
  1  2  1  0  0  0  0
  1 10  1  0  0  0  0
  1 32  1  0  0  0  0
  1 33  1  0  0  0  0
  2  6  1  0  0  0  0
  2 34  1  0  0  0  0
  2 35  1  0  0  0  0
  3  4  1  0  0  0  0
  3  6  1  0  0  0  0
  3 36  1  0  0  0  0
  3 37  1  0  0  0  0
  4 10  1  0  0  0  0
  4 38  1  0  0  0  0
  4 39  1  0  0  0  0
  5  8  1  0  0  0  0
  5 13  2  0  0  0  0
  5 29  1  0  0  0  0
  7 18  1  0  0  0  0
  7 23  2  0  0  0  0
  7 24  1  0  0  0  0
  8 19  2  0  0  0  0
  8 45  1  0  0  0  0
  9 22  1  0  0  0  0
  9 25  2  0  0  0  0
  9 26  1  0  0  0  0
 10 26  1  0  0  0  0
 10 40  1  0  0  0  0
 11 12  1  0  0  0  0
 11 16  2  0  0  0  0
 11 17  1  0  0  0  0
 12 18  2  0  0  0  0
 12 30  1  0  0  0  0
 13 14  1  0  0  0  0
 13 46  1  0  0  0  0
 14 15  2  0  0  0  0
 14 27  1  0  0  0  0
 15 19  1  0  0  0  0
 15 28  1  0  0  0  0
 16 24  1  0  0  0  0
 16 25  1  0  0  0  0
 17 22  2  0  0  0  0
 17 31  1  0  0  0  0
 18 21  1  0  0  0  0
 19 21  1  0  0  0  0
 20 24  1  0  0  0  0
 20 41  1  0  0  0  0
 20 42  1  0  0  0  0
 20 43  1  0  0  0  0
 26 44  1  0  0  0  0
M  END
$$$$
