18658-1
 OpenBabel02232411163D
Structure written by MMmdl.
 47 48  0  0  0  0  0  0  0  0999 V2000
   22.0780   13.0120   28.4490 O   0  0  0  0  0  0  0  0  0  0  0  0
   23.0450   12.7860   29.4880 C   0  0  0  0  0  0  0  0  0  0  0  0
   23.0050   11.3490   30.0250 C   0  0  0  0  0  0  0  0  0  0  0  0
   21.9690   11.3880   31.0740 O   0  0  0  0  0  0  0  0  0  0  0  0
   21.4340   10.2170   31.5000 C   0  0  0  0  0  0  0  0  0  0  0  0
   21.9290    9.0420   31.0450 N   0  0  0  0  0  0  0  0  0  0  0  0
   21.2640    7.8820   31.4260 C   0  0  0  0  0  0  0  0  0  0  0  0
   20.1520    7.8950   32.2630 C   0  0  0  0  0  0  0  0  0  0  0  0
   19.6540    9.1330   32.7480 C   0  0  0  0  0  0  0  0  0  0  0  0
   18.5320    9.1490   33.5370 N   0  0  0  0  0  0  0  0  0  0  0  0
   20.3140   10.3470   32.3730 C   0  0  0  0  0  0  0  0  0  0  0  0
   19.8890   11.6390   32.7510 C   0  0  0  0  0  0  0  0  0  0  0  0
   19.5840   12.7280   33.0110 N   0  0  0  0  0  0  0  0  0  0  0  0
   21.8290    6.7230   30.8490 N   0  0  0  0  0  0  0  0  0  0  0  0
   21.2370    5.4370   30.7870 C   0  0  0  0  0  0  0  0  0  0  0  0
   20.1790    5.1740   31.3180 O   0  0  0  0  0  0  0  0  0  0  0  0
   22.0190    4.4510   29.9300 C   0  0  0  0  0  0  0  0  0  0  0  0
   23.3440    4.0820   30.5310 C   0  0  0  0  0  0  0  0  0  0  0  0
   24.4810    4.8950   30.3100 C   0  0  0  0  0  0  0  0  0  0  0  0
   24.2220    5.9820   29.4810 O   0  0  0  0  0  0  0  0  0  0  0  0
   25.2570    6.9900   29.3480 C   0  0  0  0  0  0  0  0  0  0  0  0
   25.7270    4.5860   30.8680 C   0  0  0  0  0  0  0  0  0  0  0  0
   25.8600    3.4450   31.6540 C   0  0  0  0  0  0  0  0  0  0  0  0
   24.7380    2.6190   31.8600 C   0  0  0  0  0  0  0  0  0  0  0  0
   23.4880    2.9250   31.3010 C   0  0  0  0  0  0  0  0  0  0  0  0
   25.0130    1.5330   32.6660 O   0  0  0  0  0  0  0  0  0  0  0  0
   24.0080    0.4920   32.7640 C   0  0  0  0  0  0  0  0  0  0  0  0
   22.3610   12.4620   27.6410 H   0  0  0  0  0  0  0  0  0  0  0  0
   24.0700   13.0010   29.0940 H   0  0  0  0  0  0  0  0  0  0  0  0
   22.7560   13.5220   30.2780 H   0  0  0  0  0  0  0  0  0  0  0  0
   22.7260   10.6140   29.2370 H   0  0  0  0  0  0  0  0  0  0  0  0
   23.9610   11.0650   30.5250 H   0  0  0  0  0  0  0  0  0  0  0  0
   19.6420    6.9690   32.5360 H   0  0  0  0  0  0  0  0  0  0  0  0
   18.0540    8.2680   33.8080 H   0  0  0  0  0  0  0  0  0  0  0  0
   18.1210   10.0260   33.8580 H   0  0  0  0  0  0  0  0  0  0  0  0
   22.7400    6.8690   30.3450 H   0  0  0  0  0  0  0  0  0  0  0  0
   21.3960    3.5310   29.7880 H   0  0  0  0  0  0  0  0  0  0  0  0
   22.1950    4.9190   28.9230 H   0  0  0  0  0  0  0  0  0  0  0  0
   26.1240    6.5640   28.8000 H   0  0  0  0  0  0  0  0  0  0  0  0
   24.7360    7.7670   28.7420 H   0  0  0  0  0  0  0  0  0  0  0  0
   25.5460    7.3860   30.3450 H   0  0  0  0  0  0  0  0  0  0  0  0
   26.6020    5.2170   30.6910 H   0  0  0  0  0  0  0  0  0  0  0  0
   26.8270    3.1920   32.0980 H   0  0  0  0  0  0  0  0  0  0  0  0
   22.6320    2.2690   31.4620 H   0  0  0  0  0  0  0  0  0  0  0  0
   24.5340   -0.2680   33.3900 H   0  0  0  0  0  0  0  0  0  0  0  0
   23.1030    0.8770   33.2800 H   0  0  0  0  0  0  0  0  0  0  0  0
   23.7790    0.0870   31.7550 H   0  0  0  0  0  0  0  0  0  0  0  0
  1  2  1  0  0  0  0
  1 28  1  0  0  0  0
  2  3  1  0  0  0  0
  2 29  1  0  0  0  0
  2 30  1  0  0  0  0
  3  4  1  0  0  0  0
  3 31  1  0  0  0  0
  3 32  1  0  0  0  0
  4  5  1  0  0  0  0
  5 11  2  0  0  0  0
  5  6  1  0  0  0  0
  6  7  2  0  0  0  0
  7  8  1  0  0  0  0
  7 14  1  0  0  0  0
  8  9  2  0  0  0  0
  8 33  1  0  0  0  0
  9 10  1  0  0  0  0
  9 11  1  0  0  0  0
 10 34  1  0  0  0  0
 10 35  1  0  0  0  0
 11 12  1  0  0  0  0
 12 13  3  0  0  0  0
 14 15  1  0  0  0  0
 14 36  1  0  0  0  0
 15 16  2  0  0  0  0
 15 17  1  0  0  0  0
 17 18  1  0  0  0  0
 17 37  1  0  0  0  0
 17 38  1  0  0  0  0
 18 25  2  0  0  0  0
 18 19  1  0  0  0  0
 19 20  1  0  0  0  0
 19 22  2  0  0  0  0
 20 21  1  0  0  0  0
 21 39  1  0  0  0  0
 21 40  1  0  0  0  0
 21 41  1  0  0  0  0
 22 23  1  0  0  0  0
 22 42  1  0  0  0  0
 23 24  2  0  0  0  0
 23 43  1  0  0  0  0
 24 25  1  0  0  0  0
 24 26  1  0  0  0  0
 25 44  1  0  0  0  0
 26 27  1  0  0  0  0
 27 45  1  0  0  0  0
 27 46  1  0  0  0  0
 27 47  1  0  0  0  0
M  END
$$$$
