p38a_3flw
 OpenBabel02232411163D
Structure written by MMmdl.
 49 51  0  0  0  0  0  0  0  0999 V2000
   36.3330   35.9990   15.8660 C   0  0  0  0  0  0  0  0  0  0  0  0
   37.6280   36.4940   16.0680 C   0  0  0  0  0  0  0  0  0  0  0  0
   33.9790   39.8780   27.6970 C   0  0  0  0  0  0  0  0  0  0  0  0
   35.5010   40.0650   27.7650 C   0  0  0  0  0  0  0  0  0  0  0  0
   31.9800   38.9090   26.4650 C   0  0  0  0  0  0  0  0  0  0  0  0
   34.2680   34.9390   23.9730 C   0  0  0  0  0  0  0  0  0  0  0  0
   34.4380   35.0400   16.8950 F   0  0  0  0  0  0  0  0  0  0  0  0
   35.6560   35.5540   16.9970 C   0  0  0  0  0  0  0  0  0  0  0  0
   38.2750   36.9980   15.0190 F   0  0  0  0  0  0  0  0  0  0  0  0
   38.2570   36.5190   17.3160 C   0  0  0  0  0  0  0  0  0  0  0  0
   37.5430   36.0990   18.4440 C   0  0  0  0  0  0  0  0  0  0  0  0
   36.2400   35.6190   18.2790 C   0  0  0  0  0  0  0  0  0  0  0  0
   35.4810   35.0460   19.3070 O   0  0  0  0  0  0  0  0  0  0  0  0
   35.1500   35.8860   20.3680 C   0  0  0  0  0  0  0  0  0  0  0  0
   35.2110   37.2360   20.4140 C   0  0  0  0  0  0  0  0  0  0  0  0
   34.8350   37.9010   21.6340 C   0  0  0  0  0  0  0  0  0  0  0  0
   34.7630   39.3150   21.7570 C   0  0  0  0  0  0  0  0  0  0  0  0
   34.4570   39.9350   22.9070 N   0  0  0  0  0  0  0  0  0  0  0  0
   34.6430   35.0380   21.4830 C   0  0  0  0  0  0  0  0  0  0  0  0
   34.3700   33.8630   21.4090 O   0  0  0  0  0  0  0  0  0  0  0  0
   34.4830   35.7380   22.7340 N   0  0  0  0  0  0  0  0  0  0  0  0
   34.5230   37.1380   22.7980 C   0  0  0  0  0  0  0  0  0  0  0  0
   34.2170   37.7420   23.9930 N   0  0  0  0  0  0  0  0  0  0  0  0
   34.2160   39.1240   24.0320 C   0  0  0  0  0  0  0  0  0  0  0  0
   34.0030   39.7590   25.2350 N   0  0  0  0  0  0  0  0  0  0  0  0
   33.5230   39.0600   26.4670 C   0  0  0  0  0  0  0  0  0  0  0  0
   31.5190   37.4440   26.4900 C   0  0  0  0  0  0  0  0  0  0  0  0
   31.6150   36.8200   25.2030 O   0  0  0  0  0  0  0  0  0  0  0  0
   35.9180   40.4310   29.0930 O   0  0  0  0  0  0  0  0  0  0  0  0
   35.8730   35.9890   14.8750 H   0  0  0  0  0  0  0  0  0  0  0  0
   33.6340   39.3300   28.6110 H   0  0  0  0  0  0  0  0  0  0  0  0
   33.4820   40.8790   27.6880 H   0  0  0  0  0  0  0  0  0  0  0  0
   36.0410   39.1070   27.5910 H   0  0  0  0  0  0  0  0  0  0  0  0
   35.8280   40.8630   27.0590 H   0  0  0  0  0  0  0  0  0  0  0  0
   31.5610   39.4130   27.3720 H   0  0  0  0  0  0  0  0  0  0  0  0
   31.5420   39.4260   25.5790 H   0  0  0  0  0  0  0  0  0  0  0  0
   33.1740   34.8810   24.2160 H   0  0  0  0  0  0  0  0  0  0  0  0
   34.6710   33.9010   23.8310 H   0  0  0  0  0  0  0  0  0  0  0  0
   34.8080   35.4140   24.8380 H   0  0  0  0  0  0  0  0  0  0  0  0
   39.2810   36.8900   17.4190 H   0  0  0  0  0  0  0  0  0  0  0  0
   38.0010   36.1700   19.4320 H   0  0  0  0  0  0  0  0  0  0  0  0
   35.5450   37.8510   19.5750 H   0  0  0  0  0  0  0  0  0  0  0  0
   34.9500   39.9540   20.8780 H   0  0  0  0  0  0  0  0  0  0  0  0
   33.8830   40.7930   25.2460 H   0  0  0  0  0  0  0  0  0  0  0  0
   34.0120   38.0470   26.5100 H   0  0  0  0  0  0  0  0  0  0  0  0
   32.1260   36.8540   27.2190 H   0  0  0  0  0  0  0  0  0  0  0  0
   30.4340   37.3810   26.7340 H   0  0  0  0  0  0  0  0  0  0  0  0
   32.5270   36.9860   24.8520 H   0  0  0  0  0  0  0  0  0  0  0  0
   35.4240   41.2410   29.3790 H   0  0  0  0  0  0  0  0  0  0  0  0
  1  2  2  0  0  0  0
  1  8  1  0  0  0  0
  1 30  1  0  0  0  0
  2  9  1  0  0  0  0
  2 10  1  0  0  0  0
  3  4  1  0  0  0  0
  3 26  1  0  0  0  0
  3 31  1  0  0  0  0
  3 32  1  0  0  0  0
  4 29  1  0  0  0  0
  4 33  1  0  0  0  0
  4 34  1  0  0  0  0
  5 26  1  0  0  0  0
  5 27  1  0  0  0  0
  5 35  1  0  0  0  0
  5 36  1  0  0  0  0
  6 21  1  0  0  0  0
  6 37  1  0  0  0  0
  6 38  1  0  0  0  0
  6 39  1  0  0  0  0
  7  8  1  0  0  0  0
  8 12  2  0  0  0  0
 10 11  2  0  0  0  0
 10 40  1  0  0  0  0
 11 12  1  0  0  0  0
 11 41  1  0  0  0  0
 12 13  1  0  0  0  0
 13 14  1  0  0  0  0
 14 15  2  0  0  0  0
 14 19  1  0  0  0  0
 15 16  1  0  0  0  0
 15 42  1  0  0  0  0
 16 17  2  0  0  0  0
 16 22  1  0  0  0  0
 17 18  1  0  0  0  0
 17 43  1  0  0  0  0
 18 24  2  0  0  0  0
 19 20  2  0  0  0  0
 19 21  1  0  0  0  0
 21 22  1  0  0  0  0
 22 23  2  0  0  0  0
 23 24  1  0  0  0  0
 24 25  1  0  0  0  0
 25 26  1  0  0  0  0
 25 44  1  0  0  0  0
 26 45  1  0  0  0  0
 27 28  1  0  0  0  0
 27 46  1  0  0  0  0
 27 47  1  0  0  0  0
 28 48  1  0  0  0  0
 29 49  1  0  0  0  0
M  END
$$$$
