46
 OpenBabel02232411163D
Structure written by MMmdl.
 45 48  0  0  0  0  0  0  0  0999 V2000
    3.5120  -48.3530    7.1450 O   0  0  0  0  0  0  0  0  0  0  0  0
    3.1160  -49.3260    6.4890 C   0  0  0  0  0  0  0  0  0  0  0  0
    3.8240  -50.1690    5.9040 O   0  5  0  0  0  0  0  0  0  0  0  0
    1.5990  -49.5670    6.3830 C   0  0  0  0  0  0  0  0  0  0  0  0
   -0.3120  -50.8200    6.5300 C   0  0  0  0  0  0  0  0  0  0  0  0
   -1.2770  -51.8170    6.7540 C   0  0  0  0  0  0  0  0  0  0  0  0
   -2.5920  -51.5170    6.4330 C   0  0  0  0  0  0  0  0  0  0  0  0
   -2.9480  -50.2570    5.8970 C   0  0  0  0  0  0  0  0  0  0  0  0
   -2.0010  -49.2660    5.6770 C   0  0  0  0  0  0  0  0  0  0  0  0
   -0.6570  -49.5250    5.9960 C   0  0  0  0  0  0  0  0  0  0  0  0
    0.5660  -48.7540    5.9280 C   0  0  0  0  0  0  0  0  0  0  0  0
    0.6300  -47.3440    5.4630 C   0  0  0  0  0  0  0  0  0  0  0  0
    0.5990  -46.3310    6.6220 C   0  0  0  0  0  0  0  0  0  0  0  0
   -0.7090  -46.3460    7.4100 C   0  0  0  0  0  0  0  0  0  0  0  0
   -1.6940  -45.7740    6.4770 O   0  0  0  0  0  0  0  0  0  0  0  0
   -2.9650  -45.5650    6.9280 C   0  0  0  0  0  0  0  0  0  0  0  0
   -4.8050  -45.7370    8.4930 C   0  0  0  0  0  0  0  0  0  0  0  0
   -3.4690  -46.0100    8.1590 C   0  0  0  0  0  0  0  0  0  0  0  0
   -1.0100  -52.7890    7.1680 H   0  0  0  0  0  0  0  0  0  0  0  0
   -3.3760  -52.2580    6.5960 H   0  0  0  0  0  0  0  0  0  0  0  0
   -3.9960  -50.0710    5.6580 H   0  0  0  0  0  0  0  0  0  0  0  0
   -2.3040  -48.3010    5.2670 H   0  0  0  0  0  0  0  0  0  0  0  0
   -0.2550  -47.1370    4.8060 H   0  0  0  0  0  0  0  0  0  0  0  0
    1.5580  -47.1630    4.8700 H   0  0  0  0  0  0  0  0  0  0  0  0
    1.4260  -46.5600    7.3360 H   0  0  0  0  0  0  0  0  0  0  0  0
    0.7340  -45.3050    6.2070 H   0  0  0  0  0  0  0  0  0  0  0  0
   -0.6690  -45.6720    8.2920 H   0  0  0  0  0  0  0  0  0  0  0  0
   -1.0540  -47.3710    7.6590 H   0  0  0  0  0  0  0  0  0  0  0  0
   -2.8650  -46.5760    8.8620 H   0  0  0  0  0  0  0  0  0  0  0  0
   -3.7670  -44.8420    6.0060 C   0  0  0  0  0  0  0  0  0  0  0  0
   -5.2160  -46.0870    9.4400 H   0  0  0  0  0  0  0  0  0  0  0  0
   -3.3650  -44.5210    5.0510 H   0  0  0  0  0  0  0  0  0  0  0  0
    1.0730  -50.8200    6.7580 N   0  0  0  0  0  0  0  0  0  0  0  0
   -7.3850  -43.8440    6.4670 C   0  0  0  0  0  0  0  0  0  0  0  0
   -6.1340  -43.8840    5.5510 C   0  0  0  0  0  0  0  0  0  0  0  0
   -5.0770  -44.5820    6.3630 C   0  0  0  0  0  0  0  0  0  0  0  0
   -5.6000  -45.0310    7.6040 C   0  0  0  0  0  0  0  0  0  0  0  0
   -7.0480  -44.6610    7.7440 C   0  0  0  0  0  0  0  0  0  0  0  0
   -7.2090  -44.0540    8.6570 H   0  0  0  0  0  0  0  0  0  0  0  0
   -7.6870  -45.5710    7.7990 H   0  0  0  0  0  0  0  0  0  0  0  0
   -7.6370  -42.7990    6.7400 H   0  0  0  0  0  0  0  0  0  0  0  0
   -8.2580  -44.2880    5.9470 H   0  0  0  0  0  0  0  0  0  0  0  0
   -6.3530  -44.4690    4.6290 H   0  0  0  0  0  0  0  0  0  0  0  0
   -5.8150  -42.8610    5.2640 H   0  0  0  0  0  0  0  0  0  0  0  0
    1.5800  -51.6210    7.1150 H   0  0  0  0  0  0  0  0  0  0  0  0
  1  2  2  0  0  0  0
  2  3  1  0  0  0  0
  2  4  1  0  0  0  0
  4 11  2  0  0  0  0
  4 33  1  0  0  0  0
  5  6  2  0  0  0  0
  5 10  1  0  0  0  0
  5 33  1  0  0  0  0
  6  7  1  0  0  0  0
  6 19  1  0  0  0  0
  7  8  2  0  0  0  0
  7 20  1  0  0  0  0
  8  9  1  0  0  0  0
  8 21  1  0  0  0  0
  9 10  2  0  0  0  0
  9 22  1  0  0  0  0
 10 11  1  0  0  0  0
 11 12  1  0  0  0  0
 12 23  1  0  0  0  0
 12 24  1  0  0  0  0
 12 13  1  0  0  0  0
 13 14  1  0  0  0  0
 13 25  1  0  0  0  0
 13 26  1  0  0  0  0
 14 15  1  0  0  0  0
 14 27  1  0  0  0  0
 14 28  1  0  0  0  0
 15 16  1  0  0  0  0
 16 18  2  0  0  0  0
 16 30  1  0  0  0  0
 17 18  1  0  0  0  0
 17 31  1  0  0  0  0
 17 37  2  0  0  0  0
 18 29  1  0  0  0  0
 30 32  1  0  0  0  0
 30 36  2  0  0  0  0
 33 45  1  0  0  0  0
 34 35  1  0  0  0  0
 34 38  1  0  0  0  0
 34 41  1  0  0  0  0
 34 42  1  0  0  0  0
 35 36  1  0  0  0  0
 35 43  1  0  0  0  0
 35 44  1  0  0  0  0
 36 37  1  0  0  0  0
 37 38  1  0  0  0  0
 38 39  1  0  0  0  0
 38 40  1  0  0  0  0
M  CHG  1   3  -1
M  END
$$$$
