p38a_2m
 OpenBabel02232411163D
Structure written by MMmdl.
 50 54  0  0  0  0  0  0  0  0999 V2000
   38.2780   36.5260   17.1880 C   0  0  0  0  0  0  0  0  0  0  0  0
   34.5370   35.1150   21.2860 C   0  0  0  0  0  0  0  0  0  0  0  0
   37.5010   36.0770   18.2530 C   0  0  0  0  0  0  0  0  0  0  0  0
   33.7340   39.2400   23.6870 C   0  0  0  0  0  0  0  0  0  0  0  0
   34.5890   37.9920   21.3790 C   0  0  0  0  0  0  0  0  0  0  0  0
   35.0310   37.3190   20.1880 C   0  0  0  0  0  0  0  0  0  0  0  0
   37.6230   36.6760   15.9580 C   0  0  0  0  0  0  0  0  0  0  0  0
   36.2730   36.3750   15.7630 C   0  0  0  0  0  0  0  0  0  0  0  0
   35.5170   35.9140   16.8460 C   0  0  0  0  0  0  0  0  0  0  0  0
   34.1870   37.2460   22.5250 C   0  0  0  0  0  0  0  0  0  0  0  0
   34.5490   39.4090   21.4870 C   0  0  0  0  0  0  0  0  0  0  0  0
   35.0230   35.9670   20.1670 C   0  0  0  0  0  0  0  0  0  0  0  0
   36.1370   35.7540   18.0880 C   0  0  0  0  0  0  0  0  0  0  0  0
   38.0420   35.9490   19.4570 F   0  0  0  0  0  0  0  0  0  0  0  0
   35.4280   35.1330   19.1260 O   0  0  0  0  0  0  0  0  0  0  0  0
   34.1590   40.0400   22.6010 N   0  0  0  0  0  0  0  0  0  0  0  0
   34.3930   33.9140   21.2380 O   0  0  0  0  0  0  0  0  0  0  0  0
   34.2170   35.8380   22.4920 N   0  0  0  0  0  0  0  0  0  0  0  0
   33.7550   37.8610   23.6760 N   0  0  0  0  0  0  0  0  0  0  0  0
   33.2360   39.9420   24.7620 N   0  0  0  0  0  0  0  0  0  0  0  0
   39.3330   36.7860   17.3140 H   0  0  0  0  0  0  0  0  0  0  0  0
   35.3610   37.9270   19.3430 H   0  0  0  0  0  0  0  0  0  0  0  0
   35.7980   36.5110   14.7890 H   0  0  0  0  0  0  0  0  0  0  0  0
   34.4520   35.6970   16.7130 H   0  0  0  0  0  0  0  0  0  0  0  0
   34.8460   40.0350   20.6300 H   0  0  0  0  0  0  0  0  0  0  0  0
   33.4280   40.9640   24.8000 H   0  0  0  0  0  0  0  0  0  0  0  0
   38.3160   37.1670   14.9330 F   0  0  0  0  0  0  0  0  0  0  0  0
   33.3210   38.2450   28.2210 C   0  0  0  0  0  0  0  0  0  0  0  0
   33.8810   38.7080   26.8700 C   0  0  0  0  0  0  0  0  0  0  0  0
   32.7620   39.4030   26.0700 C   0  0  0  0  0  0  0  0  0  0  0  0
   31.5450   38.4710   25.9210 C   0  0  0  0  0  0  0  0  0  0  0  0
   31.0900   38.0020   27.3100 C   0  0  0  0  0  0  0  0  0  0  0  0
   32.1660   37.3910   28.0580 O   0  0  0  0  0  0  0  0  0  0  0  0
   33.0390   39.1160   28.8570 H   0  0  0  0  0  0  0  0  0  0  0  0
   34.0390   37.5740   28.7470 H   0  0  0  0  0  0  0  0  0  0  0  0
   34.2690   37.8260   26.3030 H   0  0  0  0  0  0  0  0  0  0  0  0
   34.7260   39.4170   27.0420 H   0  0  0  0  0  0  0  0  0  0  0  0
   32.4370   40.3290   26.6370 H   0  0  0  0  0  0  0  0  0  0  0  0
   30.7090   39.0130   25.4190 H   0  0  0  0  0  0  0  0  0  0  0  0
   31.8150   37.5810   25.3000 H   0  0  0  0  0  0  0  0  0  0  0  0
   30.6780   38.8460   27.9070 H   0  0  0  0  0  0  0  0  0  0  0  0
   30.3590   37.1650   27.2330 H   0  0  0  0  0  0  0  0  0  0  0  0
   33.9340   35.0980   23.7420 C   0  0  0  0  0  0  0  0  0  0  0  0
   34.9480   35.1810   24.8810 C   0  0  0  0  0  0  0  0  0  0  0  0
   34.7720   33.8830   24.1210 C   0  0  0  0  0  0  0  0  0  0  0  0
   32.8560   35.1100   23.9840 H   0  0  0  0  0  0  0  0  0  0  0  0
   35.8660   35.7630   24.7500 H   0  0  0  0  0  0  0  0  0  0  0  0
   34.5610   35.2560   25.9080 H   0  0  0  0  0  0  0  0  0  0  0  0
   35.5850   33.5320   23.4770 H   0  0  0  0  0  0  0  0  0  0  0  0
   34.2520   33.0490   24.6180 H   0  0  0  0  0  0  0  0  0  0  0  0
  1  3  2  0  0  0  0
  1  7  1  0  0  0  0
  1 21  1  0  0  0  0
  2 12  1  0  0  0  0
  2 17  2  0  0  0  0
  2 18  1  0  0  0  0
  3 13  1  0  0  0  0
  3 14  1  0  0  0  0
  4 16  2  0  0  0  0
  4 19  1  0  0  0  0
  4 20  1  0  0  0  0
  5  6  1  0  0  0  0
  5 10  1  0  0  0  0
  5 11  2  0  0  0  0
  6 12  2  0  0  0  0
  6 22  1  0  0  0  0
  7  8  2  0  0  0  0
  7 27  1  0  0  0  0
  8  9  1  0  0  0  0
  8 23  1  0  0  0  0
  9 13  2  0  0  0  0
  9 24  1  0  0  0  0
 10 18  1  0  0  0  0
 10 19  2  0  0  0  0
 11 16  1  0  0  0  0
 11 25  1  0  0  0  0
 12 15  1  0  0  0  0
 13 15  1  0  0  0  0
 18 43  1  0  0  0  0
 20 26  1  0  0  0  0
 20 30  1  0  0  0  0
 28 29  1  0  0  0  0
 28 33  1  0  0  0  0
 28 34  1  0  0  0  0
 28 35  1  0  0  0  0
 29 30  1  0  0  0  0
 29 36  1  0  0  0  0
 29 37  1  0  0  0  0
 30 31  1  0  0  0  0
 30 38  1  0  0  0  0
 31 32  1  0  0  0  0
 31 39  1  0  0  0  0
 31 40  1  0  0  0  0
 32 33  1  0  0  0  0
 32 41  1  0  0  0  0
 32 42  1  0  0  0  0
 43 44  1  0  0  0  0
 43 45  1  0  0  0  0
 43 46  1  0  0  0  0
 44 45  1  0  0  0  0
 44 47  1  0  0  0  0
 44 48  1  0  0  0  0
 45 49  1  0  0  0  0
 45 50  1  0  0  0  0
M  END
$$$$
