p38a_2g
 OpenBabel02232411163D
Structure written by MMmdl.
 46 49  0  0  0  0  0  0  0  0999 V2000
   34.1360   38.3300   26.7790 C   0  0  0  0  0  0  0  0  0  0  0  0
   33.5360   37.8420   28.1030 C   0  0  0  0  0  0  0  0  0  0  0  0
   31.2810   38.2770   27.3460 C   0  0  0  0  0  0  0  0  0  0  0  0
   31.7740   38.7940   25.9880 C   0  0  0  0  0  0  0  0  0  0  0  0
   38.3680   36.4090   17.3140 C   0  0  0  0  0  0  0  0  0  0  0  0
   32.1990   37.3220   27.9240 O   0  0  0  0  0  0  0  0  0  0  0  0
   34.5120   35.1340   21.2040 C   0  0  0  0  0  0  0  0  0  0  0  0
   37.4830   36.0160   18.3150 C   0  0  0  0  0  0  0  0  0  0  0  0
   33.9680   39.2460   23.6990 C   0  0  0  0  0  0  0  0  0  0  0  0
   33.1950   39.3730   26.1470 C   0  0  0  0  0  0  0  0  0  0  0  0
   34.6090   38.0100   21.3140 C   0  0  0  0  0  0  0  0  0  0  0  0
   34.9870   37.3380   20.1010 C   0  0  0  0  0  0  0  0  0  0  0  0
   37.8760   36.5290   16.0070 C   0  0  0  0  0  0  0  0  0  0  0  0
   36.5370   36.2520   15.7190 C   0  0  0  0  0  0  0  0  0  0  0  0
   35.6490   35.8520   16.7260 C   0  0  0  0  0  0  0  0  0  0  0  0
   34.2490   37.2570   22.4720 C   0  0  0  0  0  0  0  0  0  0  0  0
   34.5800   39.4250   21.4350 C   0  0  0  0  0  0  0  0  0  0  0  0
   34.9600   35.9860   20.0720 C   0  0  0  0  0  0  0  0  0  0  0  0
   36.1330   35.7260   18.0280 C   0  0  0  0  0  0  0  0  0  0  0  0
   33.8590   35.0880   23.6410 C   0  0  0  0  0  0  0  0  0  0  0  0
   37.9040   35.9050   19.5710 F   0  0  0  0  0  0  0  0  0  0  0  0
   35.2860   35.1650   18.9930 O   0  0  0  0  0  0  0  0  0  0  0  0
   34.2760   40.0520   22.5790 N   0  0  0  0  0  0  0  0  0  0  0  0
   34.3870   33.9290   21.1720 O   0  0  0  0  0  0  0  0  0  0  0  0
   34.2090   35.8550   22.4130 N   0  0  0  0  0  0  0  0  0  0  0  0
   33.9280   37.8680   23.6610 N   0  0  0  0  0  0  0  0  0  0  0  0
   33.7360   39.9260   24.8710 N   0  0  0  0  0  0  0  0  0  0  0  0
   35.1370   38.7870   26.9680 H   0  0  0  0  0  0  0  0  0  0  0  0
   34.2700   37.4610   26.0880 H   0  0  0  0  0  0  0  0  0  0  0  0
   34.0850   36.9530   28.4910 H   0  0  0  0  0  0  0  0  0  0  0  0
   33.5060   38.6620   28.8580 H   0  0  0  0  0  0  0  0  0  0  0  0
   31.1380   39.1150   28.0650 H   0  0  0  0  0  0  0  0  0  0  0  0
   30.3530   37.6710   27.2370 H   0  0  0  0  0  0  0  0  0  0  0  0
   31.7820   37.9540   25.2510 H   0  0  0  0  0  0  0  0  0  0  0  0
   31.0810   39.5840   25.6140 H   0  0  0  0  0  0  0  0  0  0  0  0
   39.4110   36.6480   17.5350 H   0  0  0  0  0  0  0  0  0  0  0  0
   33.1430   40.2740   26.8330 H   0  0  0  0  0  0  0  0  0  0  0  0
   35.2940   37.9450   19.2470 H   0  0  0  0  0  0  0  0  0  0  0  0
   36.1640   36.3660   14.7000 H   0  0  0  0  0  0  0  0  0  0  0  0
   34.6000   35.6620   16.4870 H   0  0  0  0  0  0  0  0  0  0  0  0
   34.8030   40.0560   20.5590 H   0  0  0  0  0  0  0  0  0  0  0  0
   34.6100   35.2990   24.4500 H   0  0  0  0  0  0  0  0  0  0  0  0
   32.8430   35.3960   24.0080 H   0  0  0  0  0  0  0  0  0  0  0  0
   33.8530   33.9880   23.4230 H   0  0  0  0  0  0  0  0  0  0  0  0
   33.7390   40.9660   24.8490 H   0  0  0  0  0  0  0  0  0  0  0  0
   38.5400   36.8670   15.2120 H   0  0  0  0  0  0  0  0  0  0  0  0
  1  2  1  0  0  0  0
  1 10  1  0  0  0  0
  1 28  1  0  0  0  0
  1 29  1  0  0  0  0
  2  6  1  0  0  0  0
  2 30  1  0  0  0  0
  2 31  1  0  0  0  0
  3  4  1  0  0  0  0
  3  6  1  0  0  0  0
  3 32  1  0  0  0  0
  3 33  1  0  0  0  0
  4 10  1  0  0  0  0
  4 34  1  0  0  0  0
  4 35  1  0  0  0  0
  5  8  2  0  0  0  0
  5 13  1  0  0  0  0
  5 36  1  0  0  0  0
  7 18  1  0  0  0  0
  7 24  2  0  0  0  0
  7 25  1  0  0  0  0
  8 19  1  0  0  0  0
  8 21  1  0  0  0  0
  9 23  2  0  0  0  0
  9 26  1  0  0  0  0
  9 27  1  0  0  0  0
 10 27  1  0  0  0  0
 10 37  1  0  0  0  0
 11 12  1  0  0  0  0
 11 16  1  0  0  0  0
 11 17  2  0  0  0  0
 12 18  2  0  0  0  0
 12 38  1  0  0  0  0
 13 14  2  0  0  0  0
 13 46  1  0  0  0  0
 14 15  1  0  0  0  0
 14 39  1  0  0  0  0
 15 19  2  0  0  0  0
 15 40  1  0  0  0  0
 16 25  1  0  0  0  0
 16 26  2  0  0  0  0
 17 23  1  0  0  0  0
 17 41  1  0  0  0  0
 18 22  1  0  0  0  0
 19 22  1  0  0  0  0
 20 25  1  0  0  0  0
 20 42  1  0  0  0  0
 20 43  1  0  0  0  0
 20 44  1  0  0  0  0
 27 45  1  0  0  0  0
M  END
$$$$
