6a
                    3D
 Schrodinger Suite 2022-3.
 52 54  0  0  1  0  0  0  0  0999 V2000
   16.1350  -16.0180   23.0260 N   0  3  0  0  0  0  0  0  0  0  0  0
   17.4630  -15.2400   23.0760 C   0  0  1  0  0  0  0  0  0  0  0  0
   17.1920  -13.8140   22.5280 C   0  0  0  0  0  0  0  0  0  0  0  0
   16.2140  -13.1700   22.9030 O   0  0  0  0  0  0  0  0  0  0  0  0
   17.9740  -15.2060   24.5300 C   0  0  0  0  0  0  0  0  0  0  0  0
   19.4050  -14.7310   24.6270 C   0  0  0  0  0  0  0  0  0  0  0  0
   20.4440  -15.4930   24.0700 C   0  0  0  0  0  0  0  0  0  0  0  0
   19.7120  -13.5550   25.3210 C   0  0  0  0  0  0  0  0  0  0  0  0
   21.7680  -15.0650   24.1910 C   0  0  0  0  0  0  0  0  0  0  0  0
   21.0380  -13.1190   25.4260 C   0  0  0  0  0  0  0  0  0  0  0  0
   22.0690  -13.8740   24.8640 C   0  0  0  0  0  0  0  0  0  0  0  0
   18.0610  -13.2940   21.6080 N   0  0  0  0  0  0  0  0  0  0  0  0
   17.8370  -11.9370   21.0170 C   0  0  2  0  0  0  0  0  0  0  0  0
   16.3950  -11.8180   20.4500 C   0  0  0  0  0  0  0  0  0  0  0  0
   15.8520  -12.7010   19.8070 O   0  0  0  0  0  0  0  0  0  0  0  0
   18.8970  -11.8100   19.9040 C   0  0  0  0  0  0  0  0  0  0  0  0
   19.9540  -12.9000   20.1630 C   0  0  0  0  0  0  0  0  0  0  0  0
   19.2820  -13.9580   21.0550 C   0  0  0  0  0  0  0  0  0  0  0  0
   15.8060  -10.5710   20.6360 N   0  0  0  0  0  0  0  0  0  0  0  0
   14.3950  -10.3050   20.2530 C   0  0  0  0  0  0  0  0  0  0  0  0
   13.4470  -10.3210   21.4300 C   0  0  0  0  0  0  0  0  0  0  0  0
   13.4700   -9.2440   22.3300 C   0  0  0  0  0  0  0  0  0  0  0  0
   12.5670   -9.2020   23.3930 C   0  0  0  0  0  0  0  0  0  0  0  0
   11.6030  -10.1980   23.5770 C   0  0  0  0  0  0  0  0  0  0  0  0
   11.5770  -11.2770   22.6920 C   0  0  0  0  0  0  0  0  0  0  0  0
   12.5010  -11.3340   21.6410 C   0  0  0  0  0  0  0  0  0  0  0  0
   14.1950   -8.4420   22.1920 H   0  0  0  0  0  0  0  0  0  0  0  0
   12.6830   -7.9120   24.5230 Cl  0  0  0  0  0  0  0  0  0  0  0  0
   10.8710  -10.1430   24.3920 H   0  0  0  0  0  0  0  0  0  0  0  0
   10.8340  -12.0740   22.8240 H   0  0  0  0  0  0  0  0  0  0  0  0
   12.4220  -12.6880   20.5810 Cl  0  0  0  0  0  0  0  0  0  0  0  0
   18.9200  -12.9890   25.8030 H   0  0  0  0  0  0  0  0  0  0  0  0
   21.2450  -12.1840   25.9540 H   0  0  0  0  0  0  0  0  0  0  0  0
   22.5650  -15.6760   23.7570 H   0  0  0  0  0  0  0  0  0  0  0  0
   23.1090  -13.5490   24.9500 H   0  0  0  0  0  0  0  0  0  0  0  0
   20.2190  -16.4270   23.5500 H   0  0  0  0  0  0  0  0  0  0  0  0
   16.2700  -16.9690   23.4810 H   0  0  0  0  0  0  0  0  0  0  0  0
   15.3660  -15.4720   23.5360 H   0  0  0  0  0  0  0  0  0  0  0  0
   15.8470  -16.1820   22.0190 H   0  0  0  0  0  0  0  0  0  0  0  0
   18.1890  -15.8260   22.4400 H   0  0  0  0  0  0  0  0  0  0  0  0
   17.9410  -16.2520   24.9500 H   0  0  0  0  0  0  0  0  0  0  0  0
   17.3040  -14.5630   25.1540 H   0  0  0  0  0  0  0  0  0  0  0  0
   18.0240  -11.1760   21.8220 H   0  0  0  0  0  0  0  0  0  0  0  0
   19.3710  -10.8090   19.9540 H   0  0  0  0  0  0  0  0  0  0  0  0
   18.4420  -11.9700   18.8970 H   0  0  0  0  0  0  0  0  0  0  0  0
   20.8440  -12.4760   20.6840 H   0  0  0  0  0  0  0  0  0  0  0  0
   20.2980  -13.3670   19.2080 H   0  0  0  0  0  0  0  0  0  0  0  0
   18.9880  -14.8580   20.4550 H   0  0  0  0  0  0  0  0  0  0  0  0
   19.9620  -14.2660   21.8910 H   0  0  0  0  0  0  0  0  0  0  0  0
   16.2350   -9.8800   21.2750 H   0  0  0  0  0  0  0  0  0  0  0  0
   14.0860  -11.0440   19.4600 H   0  0  0  0  0  0  0  0  0  0  0  0
   14.3640   -9.2750   19.7940 H   0  0  0  0  0  0  0  0  0  0  0  0
  1  2  1  0  0  0  0
  1 37  1  0  0  0  0
  1 38  1  0  0  0  0
  1 39  1  0  0  0  0
  2  3  1  0  0  0  0
  2  5  1  0  0  0  0
  2 40  1  0  0  0  0
  3  4  2  0  0  0  0
  3 12  1  0  0  0  0
  5  6  1  0  0  0  0
  5 41  1  0  0  0  0
  5 42  1  0  0  0  0
  6  7  2  0  0  0  0
  6  8  1  0  0  0  0
  7  9  1  0  0  0  0
  7 36  1  0  0  0  0
  8 10  2  0  0  0  0
  8 32  1  0  0  0  0
  9 11  2  0  0  0  0
  9 34  1  0  0  0  0
 10 11  1  0  0  0  0
 10 33  1  0  0  0  0
 11 35  1  0  0  0  0
 12 13  1  0  0  0  0
 12 18  1  0  0  0  0
 13 14  1  0  0  0  0
 13 16  1  0  0  0  0
 13 43  1  0  0  0  0
 14 15  2  0  0  0  0
 14 19  1  0  0  0  0
 16 17  1  0  0  0  0
 16 44  1  0  0  0  0
 16 45  1  0  0  0  0
 17 18  1  0  0  0  0
 17 46  1  0  0  0  0
 17 47  1  0  0  0  0
 18 48  1  0  0  0  0
 18 49  1  0  0  0  0
 19 20  1  0  0  0  0
 19 50  1  0  0  0  0
 20 21  1  0  0  0  0
 20 51  1  0  0  0  0
 20 52  1  0  0  0  0
 21 22  2  0  0  0  0
 21 26  1  0  0  0  0
 22 23  1  0  0  0  0
 22 27  1  0  0  0  0
 23 24  2  0  0  0  0
 23 28  1  0  0  0  0
 24 25  1  0  0  0  0
 24 29  1  0  0  0  0
 25 26  2  0  0  0  0
 25 30  1  0  0  0  0
 26 31  1  0  0  0  0
M  CHG  1   1   1
M  END
$$$$
