p38a_3flw
 OpenBabel02232411163D
Structure written by MMmdl.
 49 51  0  0  0  0  0  0  0  0999 V2000
   38.2610   36.5190   17.1760 C   0  0  0  0  0  0  0  0  0  0  0  0
   37.6240   36.6770   15.9370 C   0  0  0  0  0  0  0  0  0  0  0  0
   34.2430   39.8490   27.4180 C   0  0  0  0  0  0  0  0  0  0  0  0
   33.9040   39.2050   28.7670 C   0  0  0  0  0  0  0  0  0  0  0  0
   31.9790   39.4830   26.2750 C   0  0  0  0  0  0  0  0  0  0  0  0
   34.0600   35.0970   23.7410 C   0  0  0  0  0  0  0  0  0  0  0  0
   37.9890   35.9320   19.4380 F   0  0  0  0  0  0  0  0  0  0  0  0
   37.4670   36.0690   18.2270 C   0  0  0  0  0  0  0  0  0  0  0  0
   38.3320   37.1740   14.9260 F   0  0  0  0  0  0  0  0  0  0  0  0
   36.2770   36.3800   15.7200 C   0  0  0  0  0  0  0  0  0  0  0  0
   35.5030   35.9180   16.7900 C   0  0  0  0  0  0  0  0  0  0  0  0
   36.1030   35.7560   18.0410 C   0  0  0  0  0  0  0  0  0  0  0  0
   35.3620   35.1520   19.0670 O   0  0  0  0  0  0  0  0  0  0  0  0
   35.0240   35.9850   20.1320 C   0  0  0  0  0  0  0  0  0  0  0  0
   35.0510   37.3380   20.1520 C   0  0  0  0  0  0  0  0  0  0  0  0
   34.7210   38.0170   21.3750 C   0  0  0  0  0  0  0  0  0  0  0  0
   34.6840   39.4310   21.4880 C   0  0  0  0  0  0  0  0  0  0  0  0
   34.4420   40.0650   22.6470 N   0  0  0  0  0  0  0  0  0  0  0  0
   34.5840   35.1410   21.2740 C   0  0  0  0  0  0  0  0  0  0  0  0
   34.4080   33.9440   21.2440 O   0  0  0  0  0  0  0  0  0  0  0  0
   34.3580   35.8670   22.5000 N   0  0  0  0  0  0  0  0  0  0  0  0
   34.4240   37.2650   22.5510 C   0  0  0  0  0  0  0  0  0  0  0  0
   34.1740   37.8840   23.7520 N   0  0  0  0  0  0  0  0  0  0  0  0
   34.2210   39.2650   23.7810 C   0  0  0  0  0  0  0  0  0  0  0  0
   34.0870   39.9100   24.9940 N   0  0  0  0  0  0  0  0  0  0  0  0
   33.5040   39.2440   26.2020 C   0  0  0  0  0  0  0  0  0  0  0  0
   31.1770   39.0410   25.0420 C   0  0  0  0  0  0  0  0  0  0  0  0
   31.3110   37.6440   24.7560 O   0  0  0  0  0  0  0  0  0  0  0  0
   34.4770   37.8970   28.9250 O   0  0  0  0  0  0  0  0  0  0  0  0
   39.3150   36.7750   17.3180 H   0  0  0  0  0  0  0  0  0  0  0  0
   33.9970   40.9410   27.4920 H   0  0  0  0  0  0  0  0  0  0  0  0
   35.3460   39.7640   27.2420 H   0  0  0  0  0  0  0  0  0  0  0  0
   34.3850   39.7890   29.5920 H   0  0  0  0  0  0  0  0  0  0  0  0
   32.8040   39.1400   28.9270 H   0  0  0  0  0  0  0  0  0  0  0  0
   31.5870   38.9370   27.1680 H   0  0  0  0  0  0  0  0  0  0  0  0
   31.8010   40.5760   26.4300 H   0  0  0  0  0  0  0  0  0  0  0  0
   32.9680   35.1730   23.9850 H   0  0  0  0  0  0  0  0  0  0  0  0
   34.3310   34.0180   23.5990 H   0  0  0  0  0  0  0  0  0  0  0  0
   34.6540   35.5070   24.6030 H   0  0  0  0  0  0  0  0  0  0  0  0
   35.8160   36.5210   14.7400 H   0  0  0  0  0  0  0  0  0  0  0  0
   34.4390   35.7050   16.6410 H   0  0  0  0  0  0  0  0  0  0  0  0
   35.3270   37.9410   19.2850 H   0  0  0  0  0  0  0  0  0  0  0  0
   34.8420   40.0600   20.5960 H   0  0  0  0  0  0  0  0  0  0  0  0
   33.9820   40.9460   25.0050 H   0  0  0  0  0  0  0  0  0  0  0  0
   33.7140   38.1430   26.1540 H   0  0  0  0  0  0  0  0  0  0  0  0
   30.0850   39.1560   25.2390 H   0  0  0  0  0  0  0  0  0  0  0  0
   31.4870   39.6210   24.1450 H   0  0  0  0  0  0  0  0  0  0  0  0
   32.2640   37.4540   24.5830 H   0  0  0  0  0  0  0  0  0  0  0  0
   34.1470   37.3090   28.2010 H   0  0  0  0  0  0  0  0  0  0  0  0
  1  2  2  0  0  0  0
  1  8  1  0  0  0  0
  1 30  1  0  0  0  0
  2  9  1  0  0  0  0
  2 10  1  0  0  0  0
  3  4  1  0  0  0  0
  3 26  1  0  0  0  0
  3 31  1  0  0  0  0
  3 32  1  0  0  0  0
  4 29  1  0  0  0  0
  4 33  1  0  0  0  0
  4 34  1  0  0  0  0
  5 26  1  0  0  0  0
  5 27  1  0  0  0  0
  5 35  1  0  0  0  0
  5 36  1  0  0  0  0
  6 21  1  0  0  0  0
  6 37  1  0  0  0  0
  6 38  1  0  0  0  0
  6 39  1  0  0  0  0
  7  8  1  0  0  0  0
  8 12  2  0  0  0  0
 10 11  2  0  0  0  0
 10 40  1  0  0  0  0
 11 12  1  0  0  0  0
 11 41  1  0  0  0  0
 12 13  1  0  0  0  0
 13 14  1  0  0  0  0
 14 15  2  0  0  0  0
 14 19  1  0  0  0  0
 15 16  1  0  0  0  0
 15 42  1  0  0  0  0
 16 17  2  0  0  0  0
 16 22  1  0  0  0  0
 17 18  1  0  0  0  0
 17 43  1  0  0  0  0
 18 24  2  0  0  0  0
 19 20  2  0  0  0  0
 19 21  1  0  0  0  0
 21 22  1  0  0  0  0
 22 23  2  0  0  0  0
 23 24  1  0  0  0  0
 24 25  1  0  0  0  0
 25 26  1  0  0  0  0
 25 44  1  0  0  0  0
 26 45  1  0  0  0  0
 27 28  1  0  0  0  0
 27 46  1  0  0  0  0
 27 47  1  0  0  0  0
 28 48  1  0  0  0  0
 29 49  1  0  0  0  0
M  END
$$$$
