1h1s
 OpenBabel02232411153D
Structure written by MMmdl.
 50 53  0  0  0  0  0  0  0  0999 V2000
    1.7940   28.8860    6.8210 C   0  0  0  0  0  0  0  0  0  0  0  0
   -1.6470   31.5160    8.0070 C   0  0  0  0  0  0  0  0  0  0  0  0
   -0.1840   26.0220    8.9230 C   0  0  0  0  0  0  0  0  0  0  0  0
   -0.9330   25.3190   10.0610 C   0  0  0  0  0  0  0  0  0  0  0  0
   -0.7520   23.7970    9.8530 C   0  0  0  0  0  0  0  0  0  0  0  0
   -1.3560   22.9960   11.0150 C   0  0  0  0  0  0  0  0  0  0  0  0
   -0.7880   23.4520   12.3680 C   0  0  0  0  0  0  0  0  0  0  0  0
   -1.0060   24.9580   12.5790 C   0  0  0  0  0  0  0  0  0  0  0  0
   -0.3940   25.7740   11.4320 C   0  0  0  0  0  0  0  0  0  0  0  0
    5.3600   25.7330    5.5480 C   0  0  0  0  0  0  0  0  0  0  0  0
    5.1760   24.8760    6.6410 C   0  0  0  0  0  0  0  0  0  0  0  0
    4.3140   25.2680    7.6790 C   0  0  0  0  0  0  0  0  0  0  0  0
    3.5980   26.4610    7.6080 C   0  0  0  0  0  0  0  0  0  0  0  0
    1.0820   27.9380    7.5440 N   0  0  0  0  0  0  0  0  0  0  0  0
   -0.1100   28.2780    8.1060 C   0  0  0  0  0  0  0  0  0  0  0  0
   -0.7900   27.3790    8.8300 O   0  0  0  0  0  0  0  0  0  0  0  0
   -0.6220   29.5920    7.9380 C   0  0  0  0  0  0  0  0  0  0  0  0
   -1.7590   30.2500    8.4190 N   0  0  0  0  0  0  0  0  0  0  0  0
   -0.4400   31.7400    7.2540 N   0  0  0  0  0  0  0  0  0  0  0  0
    0.2120   30.5140    7.1840 C   0  0  0  0  0  0  0  0  0  0  0  0
    1.4030   30.1900    6.5810 N   0  0  0  0  0  0  0  0  0  0  0  0
    3.0110   28.4900    6.2600 N   0  0  0  0  0  0  0  0  0  0  0  0
    3.7210   27.2760    6.4660 C   0  0  0  0  0  0  0  0  0  0  0  0
    4.6410   26.9180    5.4530 C   0  0  0  0  0  0  0  0  0  0  0  0
   -2.3400   32.3270    8.2110 H   0  0  0  0  0  0  0  0  0  0  0  0
    0.9000   26.1230    9.1540 H   0  0  0  0  0  0  0  0  0  0  0  0
   -0.3620   25.5510    7.9360 H   0  0  0  0  0  0  0  0  0  0  0  0
   -2.0200   25.5670   10.0140 H   0  0  0  0  0  0  0  0  0  0  0  0
   -1.2500   23.4930    8.9060 H   0  0  0  0  0  0  0  0  0  0  0  0
    0.3380   23.5610    9.7840 H   0  0  0  0  0  0  0  0  0  0  0  0
   -2.4580   23.1380   11.0250 H   0  0  0  0  0  0  0  0  0  0  0  0
   -1.1340   21.9130   10.8740 H   0  0  0  0  0  0  0  0  0  0  0  0
   -1.2850   22.8870   13.1890 H   0  0  0  0  0  0  0  0  0  0  0  0
    0.3050   23.2350   12.3940 H   0  0  0  0  0  0  0  0  0  0  0  0
   -2.0970   25.1690   12.6590 H   0  0  0  0  0  0  0  0  0  0  0  0
   -0.5230   25.2670   13.5350 H   0  0  0  0  0  0  0  0  0  0  0  0
    0.7160   25.6460   11.4640 H   0  0  0  0  0  0  0  0  0  0  0  0
   -0.6280   26.8520   11.5810 H   0  0  0  0  0  0  0  0  0  0  0  0
    6.0710   25.4920    4.7460 H   0  0  0  0  0  0  0  0  0  0  0  0
    4.1890   24.6440    8.5720 H   0  0  0  0  0  0  0  0  0  0  0  0
    2.9520   26.7450    8.4400 H   0  0  0  0  0  0  0  0  0  0  0  0
   -0.1670   32.6170    6.7850 H   0  0  0  0  0  0  0  0  0  0  0  0
    3.4980   29.1710    5.6250 H   0  0  0  0  0  0  0  0  0  0  0  0
    4.7950   27.5710    4.5930 H   0  0  0  0  0  0  0  0  0  0  0  0
    5.9980   23.3720    6.7080 S   0  0  0  0  0  0  0  0  0  0  0  0
    5.0590   22.2470    6.8390 O   0  0  0  0  0  0  0  0  0  0  0  0
    6.9310   23.1780    5.5820 O   0  0  0  0  0  0  0  0  0  0  0  0
    6.9570   23.5250    8.1210 N   0  0  0  0  0  0  0  0  0  0  0  0
    6.4380   23.5860    9.0500 H   0  0  0  0  0  0  0  0  0  0  0  0
    7.7970   22.9340    8.1980 H   0  0  0  0  0  0  0  0  0  0  0  0
  1 14  2  0  0  0  0
  1 21  1  0  0  0  0
  1 22  1  0  0  0  0
  2 18  2  0  0  0  0
  2 19  1  0  0  0  0
  2 25  1  0  0  0  0
  3  4  1  0  0  0  0
  3 16  1  0  0  0  0
  3 26  1  0  0  0  0
  3 27  1  0  0  0  0
  4  5  1  0  0  0  0
  4  9  1  0  0  0  0
  4 28  1  0  0  0  0
  5  6  1  0  0  0  0
  5 29  1  0  0  0  0
  5 30  1  0  0  0  0
  6  7  1  0  0  0  0
  6 31  1  0  0  0  0
  6 32  1  0  0  0  0
  7  8  1  0  0  0  0
  7 33  1  0  0  0  0
  7 34  1  0  0  0  0
  8  9  1  0  0  0  0
  8 35  1  0  0  0  0
  8 36  1  0  0  0  0
  9 37  1  0  0  0  0
  9 38  1  0  0  0  0
 10 11  2  0  0  0  0
 10 24  1  0  0  0  0
 10 39  1  0  0  0  0
 11 12  1  0  0  0  0
 11 45  1  0  0  0  0
 12 13  2  0  0  0  0
 12 40  1  0  0  0  0
 13 23  1  0  0  0  0
 13 41  1  0  0  0  0
 14 15  1  0  0  0  0
 15 16  1  0  0  0  0
 15 17  2  0  0  0  0
 17 18  1  0  0  0  0
 17 20  1  0  0  0  0
 19 20  1  0  0  0  0
 19 42  1  0  0  0  0
 20 21  2  0  0  0  0
 22 23  1  0  0  0  0
 22 43  1  0  0  0  0
 23 24  2  0  0  0  0
 24 44  1  0  0  0  0
 45 46  2  0  0  0  0
 45 47  2  0  0  0  0
 45 48  1  0  0  0  0
 48 49  1  0  0  0  0
 48 50  1  0  0  0  0
M  END
$$$$
