32
 OpenBabel02232411153D
Structure written by MMmdl.
 54 57  0  0  0  0  0  0  0  0999 V2000
    1.7840   28.9140    6.7810 C   0  0  0  0  0  0  0  0  0  0  0  0
   -1.6420   31.5440    8.0060 C   0  0  0  0  0  0  0  0  0  0  0  0
   -0.1790   26.0440    8.8820 C   0  0  0  0  0  0  0  0  0  0  0  0
   -0.9290   25.3320   10.0140 C   0  0  0  0  0  0  0  0  0  0  0  0
   -0.7250   23.8130    9.8090 C   0  0  0  0  0  0  0  0  0  0  0  0
   -1.3340   23.0040   10.9630 C   0  0  0  0  0  0  0  0  0  0  0  0
   -0.7920   23.4690   12.3240 C   0  0  0  0  0  0  0  0  0  0  0  0
   -1.0330   24.9730   12.5310 C   0  0  0  0  0  0  0  0  0  0  0  0
   -0.4120   25.7940   11.3910 C   0  0  0  0  0  0  0  0  0  0  0  0
    4.2430   25.4220    7.9540 C   0  0  0  0  0  0  0  0  0  0  0  0
    5.0730   24.8580    6.9680 C   0  0  0  0  0  0  0  0  0  0  0  0
    5.2290   25.5800    5.7650 C   0  0  0  0  0  0  0  0  0  0  0  0
    4.5650   26.7950    5.5390 C   0  0  0  0  0  0  0  0  0  0  0  0
    1.0590   27.9590    7.4840 N   0  0  0  0  0  0  0  0  0  0  0  0
   -0.1190   28.3000    8.0690 C   0  0  0  0  0  0  0  0  0  0  0  0
   -0.7910   27.3980    8.7970 O   0  0  0  0  0  0  0  0  0  0  0  0
   -0.6230   29.6190    7.9210 C   0  0  0  0  0  0  0  0  0  0  0  0
   -1.7570   30.2750    8.4090 N   0  0  0  0  0  0  0  0  0  0  0  0
   -0.4350   31.7700    7.2550 N   0  0  0  0  0  0  0  0  0  0  0  0
    0.2140   30.5430    7.1740 C   0  0  0  0  0  0  0  0  0  0  0  0
    1.4070   30.2240    6.5670 N   0  0  0  0  0  0  0  0  0  0  0  0
    2.9980   28.4950    6.2230 N   0  0  0  0  0  0  0  0  0  0  0  0
    3.6960   27.2920    6.5230 C   0  0  0  0  0  0  0  0  0  0  0  0
    3.5730   26.6180    7.7580 C   0  0  0  0  0  0  0  0  0  0  0  0
   -2.3350   32.3530    8.2150 H   0  0  0  0  0  0  0  0  0  0  0  0
    0.9050   26.1480    9.1140 H   0  0  0  0  0  0  0  0  0  0  0  0
   -0.3500   25.5770    7.8920 H   0  0  0  0  0  0  0  0  0  0  0  0
   -2.0190   25.5640    9.9550 H   0  0  0  0  0  0  0  0  0  0  0  0
   -1.2040   23.5020    8.8550 H   0  0  0  0  0  0  0  0  0  0  0  0
    0.3700   23.5900    9.7540 H   0  0  0  0  0  0  0  0  0  0  0  0
   -2.4380   23.1300   10.9560 H   0  0  0  0  0  0  0  0  0  0  0  0
   -1.0930   21.9240   10.8250 H   0  0  0  0  0  0  0  0  0  0  0  0
   -1.2940   22.8970   13.1380 H   0  0  0  0  0  0  0  0  0  0  0  0
    0.3030   23.2670   12.3660 H   0  0  0  0  0  0  0  0  0  0  0  0
   -2.1280   25.1700   12.5900 H   0  0  0  0  0  0  0  0  0  0  0  0
   -0.5690   25.2880   13.4940 H   0  0  0  0  0  0  0  0  0  0  0  0
    0.6980   25.6740   11.4380 H   0  0  0  0  0  0  0  0  0  0  0  0
   -0.6560   26.8700   11.5350 H   0  0  0  0  0  0  0  0  0  0  0  0
    4.0930   24.9120    8.9120 H   0  0  0  0  0  0  0  0  0  0  0  0
    4.7010   27.3590    4.6170 H   0  0  0  0  0  0  0  0  0  0  0  0
   -0.1600   32.6490    6.7940 H   0  0  0  0  0  0  0  0  0  0  0  0
    3.4920   29.1410    5.5600 H   0  0  0  0  0  0  0  0  0  0  0  0
    2.9430   27.0140    8.5540 H   0  0  0  0  0  0  0  0  0  0  0  0
    5.8600   23.3620    7.2820 S   0  0  0  0  0  0  0  0  0  0  0  0
    5.8720   22.5280    6.0740 O   0  0  0  0  0  0  0  0  0  0  0  0
    7.1830   23.6380    7.8510 O   0  0  0  0  0  0  0  0  0  0  0  0
    4.9170   22.5220    8.4090 N   0  0  0  0  0  0  0  0  0  0  0  0
    3.9720   22.1860    8.1830 H   0  0  0  0  0  0  0  0  0  0  0  0
    4.9800   22.8180    9.4260 H   0  0  0  0  0  0  0  0  0  0  0  0
    6.0510   24.9760    4.8600 O   0  0  0  0  0  0  0  0  0  0  0  0
    6.2770   25.6250    3.5780 C   0  0  0  0  0  0  0  0  0  0  0  0
    6.9770   24.9090    3.0840 H   0  0  0  0  0  0  0  0  0  0  0  0
    5.3190   25.7010    3.0190 H   0  0  0  0  0  0  0  0  0  0  0  0
    6.7600   26.6120    3.7350 H   0  0  0  0  0  0  0  0  0  0  0  0
  1 14  2  0  0  0  0
  1 21  1  0  0  0  0
  1 22  1  0  0  0  0
  2 18  2  0  0  0  0
  2 19  1  0  0  0  0
  2 25  1  0  0  0  0
  3  4  1  0  0  0  0
  3 16  1  0  0  0  0
  3 26  1  0  0  0  0
  3 27  1  0  0  0  0
  4  5  1  0  0  0  0
  4  9  1  0  0  0  0
  4 28  1  0  0  0  0
  5  6  1  0  0  0  0
  5 29  1  0  0  0  0
  5 30  1  0  0  0  0
  6  7  1  0  0  0  0
  6 31  1  0  0  0  0
  6 32  1  0  0  0  0
  7  8  1  0  0  0  0
  7 33  1  0  0  0  0
  7 34  1  0  0  0  0
  8  9  1  0  0  0  0
  8 35  1  0  0  0  0
  8 36  1  0  0  0  0
  9 37  1  0  0  0  0
  9 38  1  0  0  0  0
 10 11  2  0  0  0  0
 10 24  1  0  0  0  0
 10 39  1  0  0  0  0
 11 12  1  0  0  0  0
 11 44  1  0  0  0  0
 12 13  2  0  0  0  0
 12 50  1  0  0  0  0
 13 23  1  0  0  0  0
 13 40  1  0  0  0  0
 14 15  1  0  0  0  0
 15 16  1  0  0  0  0
 15 17  2  0  0  0  0
 17 18  1  0  0  0  0
 17 20  1  0  0  0  0
 19 20  1  0  0  0  0
 19 41  1  0  0  0  0
 20 21  2  0  0  0  0
 22 23  1  0  0  0  0
 22 42  1  0  0  0  0
 23 24  2  0  0  0  0
 24 43  1  0  0  0  0
 44 45  2  0  0  0  0
 44 46  2  0  0  0  0
 44 47  1  0  0  0  0
 47 49  1  0  0  0  0
 47 48  1  0  0  0  0
 50 51  1  0  0  0  0
 51 52  1  0  0  0  0
 51 53  1  0  0  0  0
 51 54  1  0  0  0  0
M  END
$$$$
