p38a_2gg
 OpenBabel02232411163D
Structure written by MMmdl.
 48 51  0  0  0  0  0  0  0  0999 V2000
   38.2720   36.5350   17.1580 C   0  0  0  0  0  0  0  0  0  0  0  0
   34.5800   35.1090   21.2210 C   0  0  0  0  0  0  0  0  0  0  0  0
   37.4700   36.0790   18.2000 C   0  0  0  0  0  0  0  0  0  0  0  0
   34.1930   39.1980   23.7750 C   0  0  0  0  0  0  0  0  0  0  0  0
   34.6690   37.9850   21.3430 C   0  0  0  0  0  0  0  0  0  0  0  0
   35.0150   37.3210   20.1160 C   0  0  0  0  0  0  0  0  0  0  0  0
   37.6440   36.6980   15.9150 C   0  0  0  0  0  0  0  0  0  0  0  0
   36.2980   36.4010   15.6870 C   0  0  0  0  0  0  0  0  0  0  0  0
   35.5170   35.9310   16.7480 C   0  0  0  0  0  0  0  0  0  0  0  0
   34.3890   37.2210   22.5150 C   0  0  0  0  0  0  0  0  0  0  0  0
   34.6120   39.3980   21.4720 C   0  0  0  0  0  0  0  0  0  0  0  0
   35.0090   35.9680   20.0850 C   0  0  0  0  0  0  0  0  0  0  0  0
   36.1090   35.7630   18.0020 C   0  0  0  0  0  0  0  0  0  0  0  0
   34.0800   35.0490   23.6980 C   0  0  0  0  0  0  0  0  0  0  0  0
   37.9840   35.9380   19.4160 F   0  0  0  0  0  0  0  0  0  0  0  0
   35.3640   35.1460   19.0180 O   0  0  0  0  0  0  0  0  0  0  0  0
   34.3770   40.0140   22.6400 N   0  0  0  0  0  0  0  0  0  0  0  0
   34.4210   33.9090   21.1780 O   0  0  0  0  0  0  0  0  0  0  0  0
   34.3440   35.8210   22.4500 N   0  0  0  0  0  0  0  0  0  0  0  0
   34.1460   37.8240   23.7280 N   0  0  0  0  0  0  0  0  0  0  0  0
   34.1320   39.8650   24.9860 N   0  0  0  0  0  0  0  0  0  0  0  0
   39.3240   36.7940   17.3090 H   0  0  0  0  0  0  0  0  0  0  0  0
   35.2860   37.9360   19.2560 H   0  0  0  0  0  0  0  0  0  0  0  0
   35.8450   36.5480   14.7040 H   0  0  0  0  0  0  0  0  0  0  0  0
   34.4550   35.7160   16.5900 H   0  0  0  0  0  0  0  0  0  0  0  0
   34.7560   40.0410   20.5870 H   0  0  0  0  0  0  0  0  0  0  0  0
   34.9140   35.2200   24.4300 H   0  0  0  0  0  0  0  0  0  0  0  0
   33.1180   35.3990   24.1630 H   0  0  0  0  0  0  0  0  0  0  0  0
   34.0020   33.9550   23.4680 H   0  0  0  0  0  0  0  0  0  0  0  0
   33.9810   40.8950   24.9650 H   0  0  0  0  0  0  0  0  0  0  0  0
   38.3570   37.2030   14.9110 F   0  0  0  0  0  0  0  0  0  0  0  0
   34.3600   37.6650   28.1350 C   0  0  0  0  0  0  0  0  0  0  0  0
   34.5900   38.0530   26.6750 C   0  0  0  0  0  0  0  0  0  0  0  0
   33.7310   39.2780   26.2960 C   0  0  0  0  0  0  0  0  0  0  0  0
   32.2150   38.9620   26.3450 C   0  0  0  0  0  0  0  0  0  0  0  0
   31.7750   38.6620   27.7790 C   0  0  0  0  0  0  0  0  0  0  0  0
   34.7140   38.5080   28.7910 H   0  0  0  0  0  0  0  0  0  0  0  0
   35.0050   36.7820   28.3800 H   0  0  0  0  0  0  0  0  0  0  0  0
   34.3590   37.1900   26.0010 H   0  0  0  0  0  0  0  0  0  0  0  0
   35.6670   38.3240   26.5330 H   0  0  0  0  0  0  0  0  0  0  0  0
   33.9440   40.1060   27.0400 H   0  0  0  0  0  0  0  0  0  0  0  0
   31.6520   39.8570   25.9720 H   0  0  0  0  0  0  0  0  0  0  0  0
   31.9810   38.1050   25.6660 H   0  0  0  0  0  0  0  0  0  0  0  0
   31.9420   39.5820   28.4030 H   0  0  0  0  0  0  0  0  0  0  0  0
   30.6740   38.4600   27.7860 H   0  0  0  0  0  0  0  0  0  0  0  0
   32.6720   37.3120   28.4680 S   0  0  0  0  0  0  0  0  0  0  0  0
   32.2640   36.0310   27.8510 O   0  0  0  0  0  0  0  0  0  0  0  0
   32.4560   37.2540   29.9400 O   0  0  0  0  0  0  0  0  0  0  0  0
  1  3  2  0  0  0  0
  1  7  1  0  0  0  0
  1 22  1  0  0  0  0
  2 12  1  0  0  0  0
  2 18  2  0  0  0  0
  2 19  1  0  0  0  0
  3 13  1  0  0  0  0
  3 15  1  0  0  0  0
  4 17  2  0  0  0  0
  4 20  1  0  0  0  0
  4 21  1  0  0  0  0
  5  6  1  0  0  0  0
  5 10  1  0  0  0  0
  5 11  2  0  0  0  0
  6 12  2  0  0  0  0
  6 23  1  0  0  0  0
  7  8  2  0  0  0  0
  7 31  1  0  0  0  0
  8  9  1  0  0  0  0
  8 24  1  0  0  0  0
  9 13  2  0  0  0  0
  9 25  1  0  0  0  0
 10 19  1  0  0  0  0
 10 20  2  0  0  0  0
 11 17  1  0  0  0  0
 11 26  1  0  0  0  0
 12 16  1  0  0  0  0
 13 16  1  0  0  0  0
 14 19  1  0  0  0  0
 14 27  1  0  0  0  0
 14 28  1  0  0  0  0
 14 29  1  0  0  0  0
 21 30  1  0  0  0  0
 21 34  1  0  0  0  0
 32 33  1  0  0  0  0
 32 37  1  0  0  0  0
 32 38  1  0  0  0  0
 32 46  1  0  0  0  0
 33 34  1  0  0  0  0
 33 39  1  0  0  0  0
 33 40  1  0  0  0  0
 34 35  1  0  0  0  0
 34 41  1  0  0  0  0
 35 36  1  0  0  0  0
 35 42  1  0  0  0  0
 35 43  1  0  0  0  0
 36 44  1  0  0  0  0
 36 45  1  0  0  0  0
 36 46  1  0  0  0  0
 46 47  2  0  0  0  0
 46 48  2  0  0  0  0
M  END
$$$$
