p38a_2z
 OpenBabel02232411163D
Structure written by MMmdl.
 45 47  0  0  0  0  0  0  0  0999 V2000
   38.3110   36.5680   17.1250 C   0  0  0  0  0  0  0  0  0  0  0  0
   34.4340   35.0480   21.0890 C   0  0  0  0  0  0  0  0  0  0  0  0
   37.5190   36.1060   18.1730 C   0  0  0  0  0  0  0  0  0  0  0  0
   33.7150   39.0440   23.7360 C   0  0  0  0  0  0  0  0  0  0  0  0
   32.7750   38.9430   26.1360 C   0  0  0  0  0  0  0  0  0  0  0  0
   34.5770   37.9150   21.3590 C   0  0  0  0  0  0  0  0  0  0  0  0
   35.0600   37.2940   20.1550 C   0  0  0  0  0  0  0  0  0  0  0  0
   37.6720   36.7390   15.8900 C   0  0  0  0  0  0  0  0  0  0  0  0
   36.3230   36.4480   15.6730 C   0  0  0  0  0  0  0  0  0  0  0  0
   35.5520   35.9700   16.7380 C   0  0  0  0  0  0  0  0  0  0  0  0
   34.0490   37.1130   22.4130 C   0  0  0  0  0  0  0  0  0  0  0  0
   34.6080   39.3190   21.5780 C   0  0  0  0  0  0  0  0  0  0  0  0
   35.0040   35.9470   20.0520 C   0  0  0  0  0  0  0  0  0  0  0  0
   36.1570   35.7900   17.9850 C   0  0  0  0  0  0  0  0  0  0  0  0
   33.4390   34.8910   23.3950 C   0  0  0  0  0  0  0  0  0  0  0  0
   38.0420   35.9600   19.3840 F   0  0  0  0  0  0  0  0  0  0  0  0
   35.4350   35.1470   18.9960 O   0  0  0  0  0  0  0  0  0  0  0  0
   34.2100   39.8930   22.7230 N   0  0  0  0  0  0  0  0  0  0  0  0
   34.3410   33.8430   21.0030 O   0  0  0  0  0  0  0  0  0  0  0  0
   33.9700   35.7190   22.2770 N   0  0  0  0  0  0  0  0  0  0  0  0
   33.6050   37.6740   23.5850 N   0  0  0  0  0  0  0  0  0  0  0  0
   33.2940   39.6410   24.8980 N   0  0  0  0  0  0  0  0  0  0  0  0
   39.3660   36.8200   17.2680 H   0  0  0  0  0  0  0  0  0  0  0  0
   32.6600   40.0330   27.2210 C   0  0  0  0  0  0  0  0  0  0  0  0
   35.4610   37.9360   19.3680 H   0  0  0  0  0  0  0  0  0  0  0  0
   35.8600   36.6030   14.6960 H   0  0  0  0  0  0  0  0  0  0  0  0
   34.4890   35.7550   16.5890 H   0  0  0  0  0  0  0  0  0  0  0  0
   34.9720   39.9890   20.7810 H   0  0  0  0  0  0  0  0  0  0  0  0
   33.9750   35.1400   24.3490 H   0  0  0  0  0  0  0  0  0  0  0  0
   32.3410   35.0840   23.5220 H   0  0  0  0  0  0  0  0  0  0  0  0
   33.5920   33.8010   23.1730 H   0  0  0  0  0  0  0  0  0  0  0  0
   33.4500   40.6690   25.0050 H   0  0  0  0  0  0  0  0  0  0  0  0
   38.3760   37.2440   14.8810 F   0  0  0  0  0  0  0  0  0  0  0  0
   31.3340   38.4030   25.8510 C   0  0  0  0  0  0  0  0  0  0  0  0
   33.7320   37.8460   26.6090 C   0  0  0  0  0  0  0  0  0  0  0  0
   31.3010   37.1040   25.2670 O   0  0  0  0  0  0  0  0  0  0  0  0
   31.9800   37.0420   24.5470 H   0  0  0  0  0  0  0  0  0  0  0  0
   30.7860   38.2590   26.8130 H   0  0  0  0  0  0  0  0  0  0  0  0
   30.7830   39.1080   25.1840 H   0  0  0  0  0  0  0  0  0  0  0  0
   33.4300   37.5040   27.6280 H   0  0  0  0  0  0  0  0  0  0  0  0
   33.7110   36.9600   25.9350 H   0  0  0  0  0  0  0  0  0  0  0  0
   34.7750   38.2330   26.6680 H   0  0  0  0  0  0  0  0  0  0  0  0
   32.2770   39.5990   28.1720 H   0  0  0  0  0  0  0  0  0  0  0  0
   33.6570   40.4870   27.4390 H   0  0  0  0  0  0  0  0  0  0  0  0
   31.9760   40.8430   26.8950 H   0  0  0  0  0  0  0  0  0  0  0  0
  1  3  2  0  0  0  0
  1  8  1  0  0  0  0
  1 23  1  0  0  0  0
  2 13  1  0  0  0  0
  2 19  2  0  0  0  0
  2 20  1  0  0  0  0
  3 14  1  0  0  0  0
  3 16  1  0  0  0  0
  4 18  2  0  0  0  0
  4 21  1  0  0  0  0
  4 22  1  0  0  0  0
  5 22  1  0  0  0  0
  5 24  1  0  0  0  0
  5 34  1  0  0  0  0
  5 35  1  0  0  0  0
  6  7  1  0  0  0  0
  6 11  1  0  0  0  0
  6 12  2  0  0  0  0
  7 13  2  0  0  0  0
  7 25  1  0  0  0  0
  8  9  2  0  0  0  0
  8 33  1  0  0  0  0
  9 10  1  0  0  0  0
  9 26  1  0  0  0  0
 10 14  2  0  0  0  0
 10 27  1  0  0  0  0
 11 20  1  0  0  0  0
 11 21  2  0  0  0  0
 12 18  1  0  0  0  0
 12 28  1  0  0  0  0
 13 17  1  0  0  0  0
 14 17  1  0  0  0  0
 15 20  1  0  0  0  0
 15 29  1  0  0  0  0
 15 30  1  0  0  0  0
 15 31  1  0  0  0  0
 22 32  1  0  0  0  0
 24 43  1  0  0  0  0
 24 44  1  0  0  0  0
 24 45  1  0  0  0  0
 34 36  1  0  0  0  0
 34 38  1  0  0  0  0
 34 39  1  0  0  0  0
 35 40  1  0  0  0  0
 35 41  1  0  0  0  0
 35 42  1  0  0  0  0
 36 37  1  0  0  0  0
M  END
$$$$
