3flw
                    3D
 Schrodinger Suite 2022-3.
 49 51  0  0  1  0  0  0  0  0999 V2000
   15.9320   10.5300   31.6740 C   0  0  0  0  0  0  0  0  0  0  0  0
   21.3220   12.4880   31.3630 C   0  0  0  0  0  0  0  0  0  0  0  0
   17.2240   11.0360   31.7880 C   0  0  0  0  0  0  0  0  0  0  0  0
   23.8210    8.3490   31.2900 C   0  0  0  0  0  0  0  0  0  0  0  0
   26.2720    8.3480   31.8470 C   0  0  0  0  0  0  0  0  0  0  0  0
   21.4470    9.6620   30.8210 C   0  0  0  0  0  0  0  0  0  0  0  0
   20.1960   10.3530   30.6730 C   0  0  0  0  0  0  0  0  0  0  0  0
   15.2420   10.8260   30.4930 C   0  0  0  0  0  0  0  0  0  0  0  0
   15.7850   11.5940   29.4610 C   0  0  0  0  0  0  0  0  0  0  0  0
   17.0780   12.1080   29.6050 C   0  0  0  0  0  0  0  0  0  0  0  0
   22.5750   10.3460   31.3620 C   0  0  0  0  0  0  0  0  0  0  0  0
   21.6270    8.2990   30.4690 C   0  0  0  0  0  0  0  0  0  0  0  0
   20.1410   11.6700   30.9780 C   0  0  0  0  0  0  0  0  0  0  0  0
   17.7910   11.8390   30.7770 C   0  0  0  0  0  0  0  0  0  0  0  0
   23.7030   12.4180   32.1930 C   0  0  0  0  0  0  0  0  0  0  0  0
   17.9490   10.7490   32.8630 F   0  0  0  0  0  0  0  0  0  0  0  0
   14.0170   10.3270   30.3380 F   0  0  0  0  0  0  0  0  0  0  0  0
   19.0170   12.4900   30.9710 O   0  0  0  0  0  0  0  0  0  0  0  0
   22.7740    7.6350   30.6850 N   0  0  0  0  0  0  0  0  0  0  0  0
   21.3530   13.6930   31.4690 O   0  0  0  0  0  0  0  0  0  0  0  0
   22.5130   11.7190   31.6310 N   0  0  0  0  0  0  0  0  0  0  0  0
   23.7570    9.6910   31.6030 N   0  0  0  0  0  0  0  0  0  0  0  0
   24.9660    7.6470   31.6250 N   0  0  0  0  0  0  0  0  0  0  0  0
   15.2260   11.7840   28.5430 H   0  0  0  0  0  0  0  0  0  0  0  0
   17.5240   12.7040   28.8020 H   0  0  0  0  0  0  0  0  0  0  0  0
   15.4980    9.9010   32.4530 H   0  0  0  0  0  0  0  0  0  0  0  0
   19.3320    9.7840   30.3290 H   0  0  0  0  0  0  0  0  0  0  0  0
   20.8090    7.7440   29.9830 H   0  0  0  0  0  0  0  0  0  0  0  0
   26.0800    9.3500   32.3150 H   0  0  0  0  0  0  0  0  0  0  0  0
   24.2320   11.7520   32.9280 H   0  0  0  0  0  0  0  0  0  0  0  0
   24.4160   12.6810   31.3680 H   0  0  0  0  0  0  0  0  0  0  0  0
   23.3830   13.3560   32.7170 H   0  0  0  0  0  0  0  0  0  0  0  0
   25.0840    6.6920   31.2210 H   0  0  0  0  0  0  0  0  0  0  0  0
   27.0460    8.5280   30.5200 C   0  0  0  0  0  0  0  0  0  0  0  0
   27.9570    9.1380   30.7390 H   0  0  0  0  0  0  0  0  0  0  0  0
   27.3750    7.5190   30.1670 H   0  0  0  0  0  0  0  0  0  0  0  0
   27.0670    7.4710   32.8420 C   0  0  0  0  0  0  0  0  0  0  0  0
   26.4020    7.2180   33.7070 H   0  0  0  0  0  0  0  0  0  0  0  0
   27.3570    6.5120   32.3440 H   0  0  0  0  0  0  0  0  0  0  0  0
   26.2700    9.1870   29.3720 C   0  0  0  0  0  0  0  0  0  0  0  0
   26.9320    9.2920   28.4830 H   0  0  0  0  0  0  0  0  0  0  0  0
   25.3620    8.5950   29.1250 H   0  0  0  0  0  0  0  0  0  0  0  0
   28.3200    8.1860   33.3650 C   0  0  0  0  0  0  0  0  0  0  0  0
   28.0740    9.1900   33.7840 H   0  0  0  0  0  0  0  0  0  0  0  0
   29.1010    8.2560   32.5730 H   0  0  0  0  0  0  0  0  0  0  0  0
   25.8760   10.5360   29.6480 O   0  0  0  0  0  0  0  0  0  0  0  0
   25.3230   10.5320   30.4670 H   0  0  0  0  0  0  0  0  0  0  0  0
   28.8730    7.4870   34.4960 O   0  0  0  0  0  0  0  0  0  0  0  0
   29.1150    6.5660   34.2130 H   0  0  0  0  0  0  0  0  0  0  0  0
  1  3  1  0  0  0  0
  1  8  2  0  0  0  0
  1 26  1  0  0  0  0
  2 13  1  0  0  0  0
  2 20  2  0  0  0  0
  2 21  1  0  0  0  0
  3 14  2  0  0  0  0
  3 16  1  0  0  0  0
  4 19  1  0  0  0  0
  4 22  2  0  0  0  0
  4 23  1  0  0  0  0
  5 23  1  0  0  0  0
  5 29  1  0  0  0  0
  5 34  1  0  0  0  0
  5 37  1  0  0  0  0
  6  7  1  0  0  0  0
  6 11  2  0  0  0  0
  6 12  1  0  0  0  0
  7 13  2  0  0  0  0
  7 27  1  0  0  0  0
  8  9  1  0  0  0  0
  8 17  1  0  0  0  0
  9 10  2  0  0  0  0
  9 24  1  0  0  0  0
 10 14  1  0  0  0  0
 10 25  1  0  0  0  0
 11 21  1  0  0  0  0
 11 22  1  0  0  0  0
 12 19  2  0  0  0  0
 12 28  1  0  0  0  0
 13 18  1  0  0  0  0
 14 18  1  0  0  0  0
 15 21  1  0  0  0  0
 15 30  1  0  0  0  0
 15 31  1  0  0  0  0
 15 32  1  0  0  0  0
 23 33  1  0  0  0  0
 34 35  1  0  0  0  0
 34 36  1  0  0  0  0
 34 40  1  0  0  0  0
 37 38  1  0  0  0  0
 37 39  1  0  0  0  0
 37 43  1  0  0  0  0
 40 41  1  0  0  0  0
 40 42  1  0  0  0  0
 40 46  1  0  0  0  0
 43 44  1  0  0  0  0
 43 45  1  0  0  0  0
 43 48  1  0  0  0  0
 46 47  1  0  0  0  0
 48 49  1  0  0  0  0
M  END
$$$$
