31 flip
                    3D
 Schrodinger Suite 2022-3.
 41 43  0  0  1  0  0  0  0  0999 V2000
    3.4150  -48.3780    7.1910 O   0  0  0  0  0  0  0  0  0  0  0  0
    3.0050  -49.2900    6.4610 C   0  0  0  0  0  0  0  0  0  0  0  0
    3.6970  -50.0750    5.7850 O   0  5  0  0  0  0  0  0  0  0  0  0
    1.4850  -49.5360    6.3830 C   0  0  0  0  0  0  0  0  0  0  0  0
   -0.4130  -50.8080    6.5320 C   0  0  0  0  0  0  0  0  0  0  0  0
   -1.3630  -51.8220    6.7410 C   0  0  0  0  0  0  0  0  0  0  0  0
   -2.6850  -51.5310    6.4400 C   0  0  0  0  0  0  0  0  0  0  0  0
   -3.0610  -50.2610    5.9400 C   0  0  0  0  0  0  0  0  0  0  0  0
   -2.1270  -49.2560    5.7320 C   0  0  0  0  0  0  0  0  0  0  0  0
   -0.7770  -49.5060    6.0300 C   0  0  0  0  0  0  0  0  0  0  0  0
    0.4380  -48.7230    5.9600 C   0  0  0  0  0  0  0  0  0  0  0  0
    0.4860  -47.3050    5.5140 C   0  0  0  0  0  0  0  0  0  0  0  0
    0.3890  -46.3090    6.6850 C   0  0  0  0  0  0  0  0  0  0  0  0
   -0.9720  -46.3200    7.3750 C   0  0  0  0  0  0  0  0  0  0  0  0
   -1.8490  -45.6380    6.3950 O   0  0  0  0  0  0  0  0  0  0  0  0
   -3.1290  -45.3620    6.7520 C   0  0  0  0  0  0  0  0  0  0  0  0
   -3.7730  -45.8680    7.8940 C   0  0  0  0  0  0  0  0  0  0  0  0
   -5.0990  -45.4860    8.1360 C   0  0  0  0  0  0  0  0  0  0  0  0
   -5.7770  -44.6120    7.2880 C   0  0  0  0  0  0  0  0  0  0  0  0
   -5.1190  -44.1250    6.1450 C   0  0  0  0  0  0  0  0  0  0  0  0
   -3.8110  -44.4940    5.8640 C   0  0  0  0  0  0  0  0  0  0  0  0
   -1.0780  -52.8010    7.1270 H   0  0  0  0  0  0  0  0  0  0  0  0
   -3.4560  -52.2870    6.5890 H   0  0  0  0  0  0  0  0  0  0  0  0
   -4.1130  -50.0800    5.7170 H   0  0  0  0  0  0  0  0  0  0  0  0
   -2.4450  -48.2880    5.3430 H   0  0  0  0  0  0  0  0  0  0  0  0
   -0.3780  -47.1130    4.8250 H   0  0  0  0  0  0  0  0  0  0  0  0
    1.4320  -47.0970    4.9590 H   0  0  0  0  0  0  0  0  0  0  0  0
    0.5670  -45.2760    6.3010 H   0  0  0  0  0  0  0  0  0  0  0  0
    1.1650  -46.5610    7.4470 H   0  0  0  0  0  0  0  0  0  0  0  0
   -0.9820  -45.7020    8.2970 H   0  0  0  0  0  0  0  0  0  0  0  0
   -1.3780  -47.3440    7.5190 H   0  0  0  0  0  0  0  0  0  0  0  0
   -3.2750  -46.5660    8.5660 H   0  0  0  0  0  0  0  0  0  0  0  0
   -3.3110  -44.1180    4.9760 H   0  0  0  0  0  0  0  0  0  0  0  0
    0.9760  -50.7990    6.7420 N   0  0  0  0  0  0  0  0  0  0  0  0
    1.4940  -51.6020    7.0800 H   0  0  0  0  0  0  0  0  0  0  0  0
   -5.6520  -43.4510    5.4700 H   0  0  0  0  0  0  0  0  0  0  0  0
   -6.8070  -44.3080    7.4720 H   0  0  0  0  0  0  0  0  0  0  0  0
   -7.0250  -45.6840    9.6110 F   0  0  0  0  0  0  0  0  0  0  0  0
   -5.7730  -46.0890    9.3410 C   0  0  0  0  0  0  0  0  0  0  0  0
   -5.8700  -47.4290    9.2990 F   0  0  0  0  0  0  0  0  0  0  0  0
   -5.1320  -45.8750   10.5020 F   0  0  0  0  0  0  0  0  0  0  0  0
  1  2  2  0  0  0  0
  2  3  1  0  0  0  0
  2  4  1  0  0  0  0
  4 11  2  0  0  0  0
  4 34  1  0  0  0  0
  5  6  1  0  0  0  0
  5 10  2  0  0  0  0
  5 34  1  0  0  0  0
  6  7  2  0  0  0  0
  6 22  1  0  0  0  0
  7  8  1  0  0  0  0
  7 23  1  0  0  0  0
  8  9  2  0  0  0  0
  8 24  1  0  0  0  0
  9 10  1  0  0  0  0
  9 25  1  0  0  0  0
 10 11  1  0  0  0  0
 11 12  1  0  0  0  0
 12 26  1  0  0  0  0
 12 27  1  0  0  0  0
 12 13  1  0  0  0  0
 13 14  1  0  0  0  0
 13 28  1  0  0  0  0
 13 29  1  0  0  0  0
 14 15  1  0  0  0  0
 14 30  1  0  0  0  0
 14 31  1  0  0  0  0
 15 16  1  0  0  0  0
 16 17  1  0  0  0  0
 16 21  2  0  0  0  0
 17 18  2  0  0  0  0
 17 32  1  0  0  0  0
 18 19  1  0  0  0  0
 18 39  1  0  0  0  0
 19 20  2  0  0  0  0
 19 37  1  0  0  0  0
 20 21  1  0  0  0  0
 20 36  1  0  0  0  0
 21 33  1  0  0  0  0
 34 35  1  0  0  0  0
 38 39  1  0  0  0  0
 39 40  1  0  0  0  0
 39 41  1  0  0  0  0
M  CHG  1   3  -1
M  END
$$$$
