18635-1
 OpenBabel02232411163D
Structure written by MMmdl.
 44 45  0  0  0  0  0  0  0  0999 V2000
   23.2490   10.7930   29.0880 C   0  0  0  0  0  0  0  0  0  0  0  0
   23.4840   11.0520   30.5610 C   0  0  0  0  0  0  0  0  0  0  0  0
   22.2010   11.1330   31.2910 O   0  0  0  0  0  0  0  0  0  0  0  0
   21.5550    9.9970   31.6330 C   0  0  0  0  0  0  0  0  0  0  0  0
   22.0390    8.8010   31.2290 N   0  0  0  0  0  0  0  0  0  0  0  0
   21.3060    7.6680   31.5470 C   0  0  0  0  0  0  0  0  0  0  0  0
   20.1330    7.7160   32.2920 C   0  0  0  0  0  0  0  0  0  0  0  0
   19.6430    8.9750   32.7350 C   0  0  0  0  0  0  0  0  0  0  0  0
   18.4820    9.0330   33.4630 N   0  0  0  0  0  0  0  0  0  0  0  0
   20.3610   10.1670   32.3970 C   0  0  0  0  0  0  0  0  0  0  0  0
   19.9500   11.4710   32.7440 C   0  0  0  0  0  0  0  0  0  0  0  0
   19.6640   12.5690   32.9880 N   0  0  0  0  0  0  0  0  0  0  0  0
   21.9000    6.5060   31.0020 N   0  0  0  0  0  0  0  0  0  0  0  0
   21.3250    5.2150   30.9010 C   0  0  0  0  0  0  0  0  0  0  0  0
   20.2590    4.9400   31.4080 O   0  0  0  0  0  0  0  0  0  0  0  0
   22.1410    4.2540   30.0480 C   0  0  0  0  0  0  0  0  0  0  0  0
   23.4750    3.9330   30.6710 C   0  0  0  0  0  0  0  0  0  0  0  0
   24.6690    4.5980   30.3370 C   0  0  0  0  0  0  0  0  0  0  0  0
   24.8000    5.6440   29.2740 C   0  0  0  0  0  0  0  0  0  0  0  0
   25.8450    4.2620   31.0390 C   0  0  0  0  0  0  0  0  0  0  0  0
   25.8490    3.2880   32.0300 C   0  0  0  0  0  0  0  0  0  0  0  0
   24.6650    2.5930   32.3380 C   0  0  0  0  0  0  0  0  0  0  0  0
   24.6750    1.5380   33.3950 C   0  0  0  0  0  0  0  0  0  0  0  0
   23.4950    2.9160   31.6440 C   0  0  0  0  0  0  0  0  0  0  0  0
   22.9070    9.7460   28.9090 H   0  0  0  0  0  0  0  0  0  0  0  0
   22.4930   11.4930   28.6660 H   0  0  0  0  0  0  0  0  0  0  0  0
   24.2070   10.9420   28.5320 H   0  0  0  0  0  0  0  0  0  0  0  0
   23.8600   12.0860   30.7530 H   0  0  0  0  0  0  0  0  0  0  0  0
   24.1300   10.2750   31.0290 H   0  0  0  0  0  0  0  0  0  0  0  0
   19.5750    6.8080   32.5300 H   0  0  0  0  0  0  0  0  0  0  0  0
   17.9850    8.1680   33.7500 H   0  0  0  0  0  0  0  0  0  0  0  0
   18.0870    9.9240   33.7630 H   0  0  0  0  0  0  0  0  0  0  0  0
   22.8340    6.6640   30.5750 H   0  0  0  0  0  0  0  0  0  0  0  0
   21.5530    3.3040   29.9300 H   0  0  0  0  0  0  0  0  0  0  0  0
   22.2610    4.6980   29.0290 H   0  0  0  0  0  0  0  0  0  0  0  0
   25.1090    6.6190   29.7370 H   0  0  0  0  0  0  0  0  0  0  0  0
   25.6150    5.3510   28.5620 H   0  0  0  0  0  0  0  0  0  0  0  0
   23.8790    5.8140   28.6830 H   0  0  0  0  0  0  0  0  0  0  0  0
   26.7780    4.7830   30.7980 H   0  0  0  0  0  0  0  0  0  0  0  0
   26.7750    3.0590   32.5640 H   0  0  0  0  0  0  0  0  0  0  0  0
   23.7110    0.9770   33.4410 H   0  0  0  0  0  0  0  0  0  0  0  0
   25.4920    0.7970   33.2030 H   0  0  0  0  0  0  0  0  0  0  0  0
   24.8580    2.0000   34.3970 H   0  0  0  0  0  0  0  0  0  0  0  0
   22.5820    2.3580   31.8570 H   0  0  0  0  0  0  0  0  0  0  0  0
  1  2  1  0  0  0  0
  1 25  1  0  0  0  0
  1 26  1  0  0  0  0
  1 27  1  0  0  0  0
  2  3  1  0  0  0  0
  2 28  1  0  0  0  0
  2 29  1  0  0  0  0
  3  4  1  0  0  0  0
  4 10  2  0  0  0  0
  4  5  1  0  0  0  0
  5  6  2  0  0  0  0
  6  7  1  0  0  0  0
  6 13  1  0  0  0  0
  7  8  2  0  0  0  0
  7 30  1  0  0  0  0
  8  9  1  0  0  0  0
  8 10  1  0  0  0  0
  9 31  1  0  0  0  0
  9 32  1  0  0  0  0
 10 11  1  0  0  0  0
 11 12  3  0  0  0  0
 13 14  1  0  0  0  0
 13 33  1  0  0  0  0
 14 15  2  0  0  0  0
 14 16  1  0  0  0  0
 16 17  1  0  0  0  0
 16 34  1  0  0  0  0
 16 35  1  0  0  0  0
 17 24  2  0  0  0  0
 17 18  1  0  0  0  0
 18 19  1  0  0  0  0
 18 20  2  0  0  0  0
 19 36  1  0  0  0  0
 19 37  1  0  0  0  0
 19 38  1  0  0  0  0
 20 21  1  0  0  0  0
 20 39  1  0  0  0  0
 21 22  2  0  0  0  0
 21 40  1  0  0  0  0
 22 23  1  0  0  0  0
 22 24  1  0  0  0  0
 23 41  1  0  0  0  0
 23 42  1  0  0  0  0
 23 43  1  0  0  0  0
 24 44  1  0  0  0  0
M  END
$$$$
