p38a_2i
 OpenBabel02232411163D
Structure written by MMmdl.
 48 51  0  0  0  0  0  0  0  0999 V2000
   32.6200   39.8340   27.2710 C   0  0  0  0  0  0  0  0  0  0  0  0
   32.5740   39.1960   28.6640 C   0  0  0  0  0  0  0  0  0  0  0  0
   34.9020   38.5630   28.5550 C   0  0  0  0  0  0  0  0  0  0  0  0
   35.0660   39.1720   27.1570 C   0  0  0  0  0  0  0  0  0  0  0  0
   38.2770   36.2460   17.7460 C   0  0  0  0  0  0  0  0  0  0  0  0
   33.8670   39.2330   29.3100 O   0  0  0  0  0  0  0  0  0  0  0  0
   34.3910   35.2720   21.2370 C   0  0  0  0  0  0  0  0  0  0  0  0
   37.1420   35.9190   18.4910 C   0  0  0  0  0  0  0  0  0  0  0  0
   34.0950   39.2840   23.9240 C   0  0  0  0  0  0  0  0  0  0  0  0
   33.7110   39.1540   26.4160 C   0  0  0  0  0  0  0  0  0  0  0  0
   34.4500   38.1290   21.4500 C   0  0  0  0  0  0  0  0  0  0  0  0
   34.5940   37.4920   20.1740 C   0  0  0  0  0  0  0  0  0  0  0  0
   38.1330   36.4270   16.3680 C   0  0  0  0  0  0  0  0  0  0  0  0
   36.8810   36.2720   15.7680 C   0  0  0  0  0  0  0  0  0  0  0  0
   35.7580   35.9550   16.5390 C   0  0  0  0  0  0  0  0  0  0  0  0
   34.2980   37.3320   22.6250 C   0  0  0  0  0  0  0  0  0  0  0  0
   34.4310   39.5400   21.6140 C   0  0  0  0  0  0  0  0  0  0  0  0
   34.5470   36.1400   20.0610 C   0  0  0  0  0  0  0  0  0  0  0  0
   35.8600   35.7810   17.9280 C   0  0  0  0  0  0  0  0  0  0  0  0
   34.1900   35.1230   23.7640 C   0  0  0  0  0  0  0  0  0  0  0  0
   37.3020   35.7260   19.8010 F   0  0  0  0  0  0  0  0  0  0  0  0
   34.6250   35.4560   18.7250 C   0  0  0  0  0  0  0  0  0  0  0  0
   34.2660   40.1300   22.8040 N   0  0  0  0  0  0  0  0  0  0  0  0
   34.3330   34.0560   21.2380 O   0  0  0  0  0  0  0  0  0  0  0  0
   34.3050   35.9400   22.5230 N   0  0  0  0  0  0  0  0  0  0  0  0
   34.1340   37.9060   23.8640 N   0  0  0  0  0  0  0  0  0  0  0  0
   33.8200   39.8940   25.1230 N   0  0  0  0  0  0  0  0  0  0  0  0
   31.6260   39.7190   26.7750 H   0  0  0  0  0  0  0  0  0  0  0  0
   32.8380   40.9250   27.3690 H   0  0  0  0  0  0  0  0  0  0  0  0
   31.9430   39.7950   29.3610 H   0  0  0  0  0  0  0  0  0  0  0  0
   32.2260   38.1380   28.6080 H   0  0  0  0  0  0  0  0  0  0  0  0
   34.6560   37.4780   28.4910 H   0  0  0  0  0  0  0  0  0  0  0  0
   35.8050   38.7410   29.1830 H   0  0  0  0  0  0  0  0  0  0  0  0
   35.4370   40.2220   27.2420 H   0  0  0  0  0  0  0  0  0  0  0  0
   35.8180   38.5780   26.5850 H   0  0  0  0  0  0  0  0  0  0  0  0
   39.2530   36.3930   18.2120 H   0  0  0  0  0  0  0  0  0  0  0  0
   33.4100   38.0880   26.2100 H   0  0  0  0  0  0  0  0  0  0  0  0
   34.7410   38.1290   19.2970 H   0  0  0  0  0  0  0  0  0  0  0  0
   36.7680   36.4180   14.6950 H   0  0  0  0  0  0  0  0  0  0  0  0
   34.7880   35.8620   16.0430 H   0  0  0  0  0  0  0  0  0  0  0  0
   34.5460   40.1960   20.7340 H   0  0  0  0  0  0  0  0  0  0  0  0
   35.0000   35.4050   24.4890 H   0  0  0  0  0  0  0  0  0  0  0  0
   33.1960   35.3030   24.2560 H   0  0  0  0  0  0  0  0  0  0  0  0
   34.2830   34.0330   23.5160 H   0  0  0  0  0  0  0  0  0  0  0  0
   33.8750   40.9290   25.2010 H   0  0  0  0  0  0  0  0  0  0  0  0
   38.9940   36.7120   15.7690 H   0  0  0  0  0  0  0  0  0  0  0  0
   34.5660   34.3420   18.8550 H   0  0  0  0  0  0  0  0  0  0  0  0
   33.7160   35.7660   18.1340 H   0  0  0  0  0  0  0  0  0  0  0  0
  1  2  1  0  0  0  0
  1 10  1  0  0  0  0
  1 28  1  0  0  0  0
  1 29  1  0  0  0  0
  2  6  1  0  0  0  0
  2 30  1  0  0  0  0
  2 31  1  0  0  0  0
  3  4  1  0  0  0  0
  3  6  1  0  0  0  0
  3 32  1  0  0  0  0
  3 33  1  0  0  0  0
  4 10  1  0  0  0  0
  4 34  1  0  0  0  0
  4 35  1  0  0  0  0
  5  8  2  0  0  0  0
  5 13  1  0  0  0  0
  5 36  1  0  0  0  0
  7 18  1  0  0  0  0
  7 24  2  0  0  0  0
  7 25  1  0  0  0  0
  8 19  1  0  0  0  0
  8 21  1  0  0  0  0
  9 23  2  0  0  0  0
  9 26  1  0  0  0  0
  9 27  1  0  0  0  0
 10 27  1  0  0  0  0
 10 37  1  0  0  0  0
 11 12  1  0  0  0  0
 11 16  1  0  0  0  0
 11 17  2  0  0  0  0
 12 18  2  0  0  0  0
 12 38  1  0  0  0  0
 13 14  2  0  0  0  0
 13 46  1  0  0  0  0
 14 15  1  0  0  0  0
 14 39  1  0  0  0  0
 15 19  2  0  0  0  0
 15 40  1  0  0  0  0
 16 25  1  0  0  0  0
 16 26  2  0  0  0  0
 17 23  1  0  0  0  0
 17 41  1  0  0  0  0
 18 22  1  0  0  0  0
 19 22  1  0  0  0  0
 20 25  1  0  0  0  0
 20 42  1  0  0  0  0
 20 43  1  0  0  0  0
 20 44  1  0  0  0  0
 22 47  1  0  0  0  0
 22 48  1  0  0  0  0
 27 45  1  0  0  0  0
M  END
$$$$
