p38a_2u
 OpenBabel02232411163D
Structure written by MMmdl.
 64 68  0  0  0  0  0  0  0  0999 V2000
   38.2350   36.4840   17.2550 C   0  0  0  0  0  0  0  0  0  0  0  0
   34.5420   35.2000   21.4490 C   0  0  0  0  0  0  0  0  0  0  0  0
   37.4700   36.0710   18.3430 C   0  0  0  0  0  0  0  0  0  0  0  0
   34.0810   39.3610   23.8740 C   0  0  0  0  0  0  0  0  0  0  0  0
   34.6560   38.0780   21.5010 C   0  0  0  0  0  0  0  0  0  0  0  0
   35.0400   37.3830   20.3030 C   0  0  0  0  0  0  0  0  0  0  0  0
   37.5640   36.6060   16.0310 C   0  0  0  0  0  0  0  0  0  0  0  0
   36.2080   36.3120   15.8640 C   0  0  0  0  0  0  0  0  0  0  0  0
   35.4640   35.8920   16.9720 C   0  0  0  0  0  0  0  0  0  0  0  0
   34.3030   37.3430   22.6710 C   0  0  0  0  0  0  0  0  0  0  0  0
   34.6290   39.4960   21.5990 C   0  0  0  0  0  0  0  0  0  0  0  0
   35.0230   36.0320   20.3080 C   0  0  0  0  0  0  0  0  0  0  0  0
   36.0990   35.7640   18.2100 C   0  0  0  0  0  0  0  0  0  0  0  0
   38.0320   35.9630   19.5390 F   0  0  0  0  0  0  0  0  0  0  0  0
   35.3960   35.1770   19.2710 O   0  0  0  0  0  0  0  0  0  0  0  0
   34.3550   40.1490   22.7370 N   0  0  0  0  0  0  0  0  0  0  0  0
   34.4160   33.9960   21.4060 O   0  0  0  0  0  0  0  0  0  0  0  0
   34.2060   35.9360   22.6390 N   0  0  0  0  0  0  0  0  0  0  0  0
   34.0420   37.9800   23.8560 N   0  0  0  0  0  0  0  0  0  0  0  0
   33.7750   40.0070   25.0480 N   0  0  0  0  0  0  0  0  0  0  0  0
   39.2950   36.7350   17.3580 H   0  0  0  0  0  0  0  0  0  0  0  0
   35.3450   37.9730   19.4360 H   0  0  0  0  0  0  0  0  0  0  0  0
   35.7200   36.4180   14.8920 H   0  0  0  0  0  0  0  0  0  0  0  0
   34.3940   35.6830   16.8640 H   0  0  0  0  0  0  0  0  0  0  0  0
   34.8340   40.1060   20.7040 H   0  0  0  0  0  0  0  0  0  0  0  0
   33.9000   41.0340   25.1190 H   0  0  0  0  0  0  0  0  0  0  0  0
   38.2470   37.0640   14.9840 F   0  0  0  0  0  0  0  0  0  0  0  0
   32.5900   39.4020   28.6310 C   0  0  0  0  0  0  0  0  0  0  0  0
   32.6650   40.0610   27.2480 C   0  0  0  0  0  0  0  0  0  0  0  0
   33.6420   39.2770   26.3470 C   0  0  0  0  0  0  0  0  0  0  0  0
   35.0160   39.1420   27.0390 C   0  0  0  0  0  0  0  0  0  0  0  0
   34.8370   38.5250   28.4320 C   0  0  0  0  0  0  0  0  0  0  0  0
   33.8970   39.2730   29.2360 O   0  0  0  0  0  0  0  0  0  0  0  0
   32.1180   38.3950   28.5680 H   0  0  0  0  0  0  0  0  0  0  0  0
   32.0610   40.0610   29.3580 H   0  0  0  0  0  0  0  0  0  0  0  0
   33.0120   41.1160   27.3610 H   0  0  0  0  0  0  0  0  0  0  0  0
   31.6530   40.0750   26.7800 H   0  0  0  0  0  0  0  0  0  0  0  0
   33.2190   38.2530   26.1450 H   0  0  0  0  0  0  0  0  0  0  0  0
   35.6820   38.4840   26.4310 H   0  0  0  0  0  0  0  0  0  0  0  0
   35.4960   40.1460   27.1260 H   0  0  0  0  0  0  0  0  0  0  0  0
   34.4880   37.4700   28.3560 H   0  0  0  0  0  0  0  0  0  0  0  0
   35.7750   38.6060   29.0290 H   0  0  0  0  0  0  0  0  0  0  0  0
   34.3930   33.2590   25.4040 C   0  0  0  0  0  0  0  0  0  0  0  0
   34.8970   34.4490   24.5490 C   0  0  0  0  0  0  0  0  0  0  0  0
   33.7360   35.2120   23.8860 C   0  0  0  0  0  0  0  0  0  0  0  0
   32.5590   34.2740   23.5760 C   0  0  0  0  0  0  0  0  0  0  0  0
   31.9700   33.7490   24.9010 C   0  0  0  0  0  0  0  0  0  0  0  0
   35.1090   33.1550   26.2620 H   0  0  0  0  0  0  0  0  0  0  0  0
   34.4250   32.3280   24.7780 H   0  0  0  0  0  0  0  0  0  0  0  0
   35.6050   34.0410   23.7920 H   0  0  0  0  0  0  0  0  0  0  0  0
   35.4550   35.1590   25.2080 H   0  0  0  0  0  0  0  0  0  0  0  0
   33.3690   35.9920   24.6210 H   0  0  0  0  0  0  0  0  0  0  0  0
   31.7560   34.8220   23.0270 H   0  0  0  0  0  0  0  0  0  0  0  0
   32.9010   33.4190   22.9430 H   0  0  0  0  0  0  0  0  0  0  0  0
   31.2940   34.5400   25.3320 H   0  0  0  0  0  0  0  0  0  0  0  0
   31.3770   32.8230   24.6700 H   0  0  0  0  0  0  0  0  0  0  0  0
   33.0180   33.4790   25.9370 N   0  0  0  0  0  0  0  0  0  0  0  0
   32.4880   32.6760   27.3660 S   0  0  0  0  0  0  0  0  0  0  0  0
   31.3020   31.8600   27.0250 O   0  0  0  0  0  0  0  0  0  0  0  0
   32.1640   33.6980   28.3770 O   0  0  0  0  0  0  0  0  0  0  0  0
   33.7840   31.6670   27.9230 C   0  0  0  0  0  0  0  0  0  0  0  0
   34.6530   32.2560   28.3180 H   0  0  0  0  0  0  0  0  0  0  0  0
   33.4480   31.0160   28.7800 H   0  0  0  0  0  0  0  0  0  0  0  0
   34.1620   30.9590   27.1400 H   0  0  0  0  0  0  0  0  0  0  0  0
  1  3  2  0  0  0  0
  1  7  1  0  0  0  0
  1 21  1  0  0  0  0
  2 12  1  0  0  0  0
  2 17  2  0  0  0  0
  2 18  1  0  0  0  0
  3 13  1  0  0  0  0
  3 14  1  0  0  0  0
  4 16  2  0  0  0  0
  4 19  1  0  0  0  0
  4 20  1  0  0  0  0
  5  6  1  0  0  0  0
  5 10  1  0  0  0  0
  5 11  2  0  0  0  0
  6 12  2  0  0  0  0
  6 22  1  0  0  0  0
  7  8  2  0  0  0  0
  7 27  1  0  0  0  0
  8  9  1  0  0  0  0
  8 23  1  0  0  0  0
  9 13  2  0  0  0  0
  9 24  1  0  0  0  0
 10 18  1  0  0  0  0
 10 19  2  0  0  0  0
 11 16  1  0  0  0  0
 11 25  1  0  0  0  0
 12 15  1  0  0  0  0
 13 15  1  0  0  0  0
 18 45  1  0  0  0  0
 20 26  1  0  0  0  0
 20 30  1  0  0  0  0
 28 29  1  0  0  0  0
 28 33  1  0  0  0  0
 28 34  1  0  0  0  0
 28 35  1  0  0  0  0
 29 30  1  0  0  0  0
 29 36  1  0  0  0  0
 29 37  1  0  0  0  0
 30 31  1  0  0  0  0
 30 38  1  0  0  0  0
 31 32  1  0  0  0  0
 31 39  1  0  0  0  0
 31 40  1  0  0  0  0
 32 33  1  0  0  0  0
 32 41  1  0  0  0  0
 32 42  1  0  0  0  0
 43 44  1  0  0  0  0
 43 48  1  0  0  0  0
 43 49  1  0  0  0  0
 43 57  1  0  0  0  0
 44 45  1  0  0  0  0
 44 50  1  0  0  0  0
 44 51  1  0  0  0  0
 45 46  1  0  0  0  0
 45 52  1  0  0  0  0
 46 47  1  0  0  0  0
 46 53  1  0  0  0  0
 46 54  1  0  0  0  0
 47 55  1  0  0  0  0
 47 56  1  0  0  0  0
 47 57  1  0  0  0  0
 57 58  1  0  0  0  0
 58 59  2  0  0  0  0
 58 60  2  0  0  0  0
 58 61  1  0  0  0  0
 61 62  1  0  0  0  0
 61 63  1  0  0  0  0
 61 64  1  0  0  0  0
M  END
$$$$
