42
 OpenBabel02232411163D
Structure written by MMmdl.
 44 47  0  0  0  0  0  0  0  0999 V2000
    3.6920  -49.9600    6.0270 O   0  0  0  0  0  0  0  0  0  0  0  0
    2.9440  -49.0930    6.5230 C   0  0  0  0  0  0  0  0  0  0  0  0
    3.2950  -48.0540    7.0970 O   0  5  0  0  0  0  0  0  0  0  0  0
    1.4390  -49.4020    6.4060 C   0  0  0  0  0  0  0  0  0  0  0  0
   -0.4080  -50.7520    6.5450 C   0  0  0  0  0  0  0  0  0  0  0  0
   -1.3230  -51.7960    6.7660 C   0  0  0  0  0  0  0  0  0  0  0  0
   -2.6500  -51.5630    6.4390 C   0  0  0  0  0  0  0  0  0  0  0  0
   -3.0680  -50.3230    5.8990 C   0  0  0  0  0  0  0  0  0  0  0  0
   -2.1690  -49.2870    5.6820 C   0  0  0  0  0  0  0  0  0  0  0  0
   -0.8160  -49.4780    6.0090 C   0  0  0  0  0  0  0  0  0  0  0  0
    0.3670  -48.6450    5.9470 C   0  0  0  0  0  0  0  0  0  0  0  0
    0.3480  -47.2350    5.4770 C   0  0  0  0  0  0  0  0  0  0  0  0
    0.3180  -46.2150    6.6300 C   0  0  0  0  0  0  0  0  0  0  0  0
   -0.8460  -46.3880    7.5970 C   0  0  0  0  0  0  0  0  0  0  0  0
   -2.0360  -45.8560    6.8970 O   0  0  0  0  0  0  0  0  0  0  0  0
   -3.2160  -45.8660    7.5800 C   0  0  0  0  0  0  0  0  0  0  0  0
   -5.7340  -45.6380    8.8130 C   0  0  0  0  0  0  0  0  0  0  0  0
   -4.7420  -46.4010    9.3770 C   0  0  0  0  0  0  0  0  0  0  0  0
   -3.4630  -46.5180    8.7740 C   0  0  0  0  0  0  0  0  0  0  0  0
   -1.0090  -52.7530    7.1830 H   0  0  0  0  0  0  0  0  0  0  0  0
   -3.3960  -52.3440    6.5990 H   0  0  0  0  0  0  0  0  0  0  0  0
   -4.1220  -50.1890    5.6530 H   0  0  0  0  0  0  0  0  0  0  0  0
   -2.5170  -48.3390    5.2690 H   0  0  0  0  0  0  0  0  0  0  0  0
   -0.5670  -47.0790    4.8490 H   0  0  0  0  0  0  0  0  0  0  0  0
    1.2470  -47.0180    4.8510 H   0  0  0  0  0  0  0  0  0  0  0  0
    0.2740  -45.1870    6.2030 H   0  0  0  0  0  0  0  0  0  0  0  0
    1.2570  -46.3260    7.2300 H   0  0  0  0  0  0  0  0  0  0  0  0
   -0.7220  -45.7500    8.4990 H   0  0  0  0  0  0  0  0  0  0  0  0
   -1.0560  -47.4530    7.8260 H   0  0  0  0  0  0  0  0  0  0  0  0
   -2.7270  -47.1360    9.2750 H   0  0  0  0  0  0  0  0  0  0  0  0
   -5.5120  -44.9820    7.5630 C   0  0  0  0  0  0  0  0  0  0  0  0
   -4.2500  -45.0990    6.9210 C   0  0  0  0  0  0  0  0  0  0  0  0
   -4.0490  -44.4940    5.6470 C   0  0  0  0  0  0  0  0  0  0  0  0
   -5.0570  -43.7780    5.0470 C   0  0  0  0  0  0  0  0  0  0  0  0
   -6.3190  -43.6540    5.6880 C   0  0  0  0  0  0  0  0  0  0  0  0
   -6.5450  -44.2390    6.9110 C   0  0  0  0  0  0  0  0  0  0  0  0
   -3.0900  -44.6300    5.1460 H   0  0  0  0  0  0  0  0  0  0  0  0
   -4.9070  -43.3070    4.0780 H   0  0  0  0  0  0  0  0  0  0  0  0
   -7.1060  -43.0920    5.1900 H   0  0  0  0  0  0  0  0  0  0  0  0
   -7.5170  -44.1550    7.3950 H   0  0  0  0  0  0  0  0  0  0  0  0
   -4.9290  -46.9390   10.3100 H   0  0  0  0  0  0  0  0  0  0  0  0
   -6.7060  -45.5380    9.2940 H   0  0  0  0  0  0  0  0  0  0  0  0
    0.9740  -50.6800    6.7800 N   0  0  0  0  0  0  0  0  0  0  0  0
    1.5220  -51.4530    7.1400 H   0  0  0  0  0  0  0  0  0  0  0  0
  1  2  2  0  0  0  0
  2  3  1  0  0  0  0
  2  4  1  0  0  0  0
  4 11  2  0  0  0  0
  4 43  1  0  0  0  0
  5  6  2  0  0  0  0
  5 10  1  0  0  0  0
  5 43  1  0  0  0  0
  6  7  1  0  0  0  0
  6 20  1  0  0  0  0
  7  8  2  0  0  0  0
  7 21  1  0  0  0  0
  8  9  1  0  0  0  0
  8 22  1  0  0  0  0
  9 10  2  0  0  0  0
  9 23  1  0  0  0  0
 10 11  1  0  0  0  0
 11 12  1  0  0  0  0
 12 24  1  0  0  0  0
 12 25  1  0  0  0  0
 12 13  1  0  0  0  0
 13 14  1  0  0  0  0
 13 26  1  0  0  0  0
 13 27  1  0  0  0  0
 14 15  1  0  0  0  0
 14 28  1  0  0  0  0
 14 29  1  0  0  0  0
 15 16  1  0  0  0  0
 16 19  2  0  0  0  0
 16 32  1  0  0  0  0
 17 18  2  0  0  0  0
 17 31  1  0  0  0  0
 17 42  1  0  0  0  0
 18 19  1  0  0  0  0
 18 41  1  0  0  0  0
 19 30  1  0  0  0  0
 31 32  2  0  0  0  0
 31 36  1  0  0  0  0
 32 33  1  0  0  0  0
 33 34  2  0  0  0  0
 33 37  1  0  0  0  0
 34 35  1  0  0  0  0
 34 38  1  0  0  0  0
 35 36  2  0  0  0  0
 35 39  1  0  0  0  0
 36 40  1  0  0  0  0
 43 44  1  0  0  0  0
M  CHG  1   3  -1
M  END
$$$$
