18639-1
 OpenBabel02232411163D
Structure written by MMmdl.
 48 49  0  0  0  0  0  0  0  0999 V2000
   24.4390   10.9320   30.7590 C   0  0  0  0  0  0  0  0  0  0  0  0
   23.1110   11.2750   30.1180 C   0  0  0  0  0  0  0  0  0  0  0  0
   22.0340   11.3330   31.1290 O   0  0  0  0  0  0  0  0  0  0  0  0
   21.4510   10.1830   31.5380 C   0  0  0  0  0  0  0  0  0  0  0  0
   21.9330    8.9940   31.1060 N   0  0  0  0  0  0  0  0  0  0  0  0
   21.2390    7.8510   31.4720 C   0  0  0  0  0  0  0  0  0  0  0  0
   20.1020    7.8830   32.2720 C   0  0  0  0  0  0  0  0  0  0  0  0
   19.6110    9.1340   32.7340 C   0  0  0  0  0  0  0  0  0  0  0  0
   18.4760    9.1700   33.5020 N   0  0  0  0  0  0  0  0  0  0  0  0
   20.3000   10.3350   32.3690 C   0  0  0  0  0  0  0  0  0  0  0  0
   19.8870   11.6330   32.7360 C   0  0  0  0  0  0  0  0  0  0  0  0
   19.5990   12.7260   32.9970 N   0  0  0  0  0  0  0  0  0  0  0  0
   21.8270    6.6870   30.9250 N   0  0  0  0  0  0  0  0  0  0  0  0
   21.2590    5.3980   30.8720 C   0  0  0  0  0  0  0  0  0  0  0  0
   20.1840    5.1270   31.3640 O   0  0  0  0  0  0  0  0  0  0  0  0
   22.0910    4.4050   30.0670 C   0  0  0  0  0  0  0  0  0  0  0  0
   23.4650    4.1540   30.6160 C   0  0  0  0  0  0  0  0  0  0  0  0
   24.5500    5.0300   30.2930 C   0  0  0  0  0  0  0  0  0  0  0  0
   24.1740    6.0800   29.4650 O   0  0  0  0  0  0  0  0  0  0  0  0
   25.1200    7.1720   29.2880 C   0  0  0  0  0  0  0  0  0  0  0  0
   25.8370    4.7960   30.7510 C   0  0  0  0  0  0  0  0  0  0  0  0
   26.0870    3.6790   31.5760 C   0  0  0  0  0  0  0  0  0  0  0  0
   27.4470    3.4360   32.0650 N   0  3  0  0  0  0  0  0  0  0  0  0
   27.6020    2.6170   32.9580 O   0  5  0  0  0  0  0  0  0  0  0  0
   28.3720    4.0570   31.5540 O   0  0  0  0  0  0  0  0  0  0  0  0
   25.0270    2.8020   31.9050 C   0  0  0  0  0  0  0  0  0  0  0  0
   23.7240    3.0480   31.4090 C   0  0  0  0  0  0  0  0  0  0  0  0
   25.3920    1.7620   32.7050 O   0  0  0  0  0  0  0  0  0  0  0  0
   24.4060    0.7160   32.9500 C   0  0  0  0  0  0  0  0  0  0  0  0
   25.2280   10.8810   29.9670 H   0  0  0  0  0  0  0  0  0  0  0  0
   24.7350   11.6990   31.5050 H   0  0  0  0  0  0  0  0  0  0  0  0
   24.3990    9.9340   31.2580 H   0  0  0  0  0  0  0  0  0  0  0  0
   23.0770   12.3310   29.7550 H   0  0  0  0  0  0  0  0  0  0  0  0
   22.8300   10.5520   29.3190 H   0  0  0  0  0  0  0  0  0  0  0  0
   19.5700    6.9660   32.5330 H   0  0  0  0  0  0  0  0  0  0  0  0
   17.9760    8.2950   33.7540 H   0  0  0  0  0  0  0  0  0  0  0  0
   18.0630   10.0530   33.8010 H   0  0  0  0  0  0  0  0  0  0  0  0
   22.7350    6.8450   30.4180 H   0  0  0  0  0  0  0  0  0  0  0  0
   21.5280    3.4340   30.0160 H   0  0  0  0  0  0  0  0  0  0  0  0
   22.1900    4.8110   29.0200 H   0  0  0  0  0  0  0  0  0  0  0  0
   25.4760    7.5490   30.2710 H   0  0  0  0  0  0  0  0  0  0  0  0
   25.9510    6.8270   28.6370 H   0  0  0  0  0  0  0  0  0  0  0  0
   24.4820    7.9300   28.7750 H   0  0  0  0  0  0  0  0  0  0  0  0
   26.6690    5.4530   30.4720 H   0  0  0  0  0  0  0  0  0  0  0  0
   22.9170    2.3510   31.6480 H   0  0  0  0  0  0  0  0  0  0  0  0
   25.0050   -0.0160   33.5430 H   0  0  0  0  0  0  0  0  0  0  0  0
   23.5620    1.1180   33.5490 H   0  0  0  0  0  0  0  0  0  0  0  0
   24.0740    0.2710   31.9870 H   0  0  0  0  0  0  0  0  0  0  0  0
  1  2  1  0  0  0  0
  1 30  1  0  0  0  0
  1 31  1  0  0  0  0
  1 32  1  0  0  0  0
  2  3  1  0  0  0  0
  2 33  1  0  0  0  0
  2 34  1  0  0  0  0
  3  4  1  0  0  0  0
  4 10  2  0  0  0  0
  4  5  1  0  0  0  0
  5  6  2  0  0  0  0
  6  7  1  0  0  0  0
  6 13  1  0  0  0  0
  7  8  2  0  0  0  0
  7 35  1  0  0  0  0
  8  9  1  0  0  0  0
  8 10  1  0  0  0  0
  9 36  1  0  0  0  0
  9 37  1  0  0  0  0
 10 11  1  0  0  0  0
 11 12  3  0  0  0  0
 13 14  1  0  0  0  0
 13 38  1  0  0  0  0
 14 15  2  0  0  0  0
 14 16  1  0  0  0  0
 16 17  1  0  0  0  0
 16 39  1  0  0  0  0
 16 40  1  0  0  0  0
 17 27  2  0  0  0  0
 17 18  1  0  0  0  0
 18 19  1  0  0  0  0
 18 21  2  0  0  0  0
 19 20  1  0  0  0  0
 20 41  1  0  0  0  0
 20 42  1  0  0  0  0
 20 43  1  0  0  0  0
 21 22  1  0  0  0  0
 21 44  1  0  0  0  0
 22 23  1  0  0  0  0
 22 26  2  0  0  0  0
 23 24  1  0  0  0  0
 23 25  2  0  0  0  0
 26 27  1  0  0  0  0
 26 28  1  0  0  0  0
 27 45  1  0  0  0  0
 28 29  1  0  0  0  0
 29 46  1  0  0  0  0
 29 47  1  0  0  0  0
 29 48  1  0  0  0  0
M  CHG  2  23   1  24  -1
M  END
$$$$
