p38a_2i
 OpenBabel02232411163D
Structure written by MMmdl.
 48 51  0  0  0  0  0  0  0  0999 V2000
   32.7630   39.6570   27.4610 C   0  0  0  0  0  0  0  0  0  0  0  0
   32.7650   39.0670   28.8770 C   0  0  0  0  0  0  0  0  0  0  0  0
   35.1600   38.7680   28.8560 C   0  0  0  0  0  0  0  0  0  0  0  0
   35.2820   39.3400   27.4390 C   0  0  0  0  0  0  0  0  0  0  0  0
   37.1590   35.5520   16.1220 C   0  0  0  0  0  0  0  0  0  0  0  0
   34.0180   39.3150   29.5550 O   0  0  0  0  0  0  0  0  0  0  0  0
   34.2840   35.2000   21.4270 C   0  0  0  0  0  0  0  0  0  0  0  0
   35.9780   35.3390   16.8350 C   0  0  0  0  0  0  0  0  0  0  0  0
   34.1920   39.2070   24.1430 C   0  0  0  0  0  0  0  0  0  0  0  0
   33.9660   39.1090   26.6620 C   0  0  0  0  0  0  0  0  0  0  0  0
   34.4180   38.0530   21.6570 C   0  0  0  0  0  0  0  0  0  0  0  0
   34.5150   37.4220   20.3760 C   0  0  0  0  0  0  0  0  0  0  0  0
   38.2760   36.0130   16.8240 C   0  0  0  0  0  0  0  0  0  0  0  0
   38.2010   36.2150   18.2040 C   0  0  0  0  0  0  0  0  0  0  0  0
   37.0050   35.9960   18.8930 C   0  0  0  0  0  0  0  0  0  0  0  0
   34.2830   37.2540   22.8320 C   0  0  0  0  0  0  0  0  0  0  0  0
   34.4430   39.4650   21.8230 C   0  0  0  0  0  0  0  0  0  0  0  0
   34.4500   36.0700   20.2550 C   0  0  0  0  0  0  0  0  0  0  0  0
   35.8500   35.5750   18.2180 C   0  0  0  0  0  0  0  0  0  0  0  0
   34.1370   35.0390   23.9580 C   0  0  0  0  0  0  0  0  0  0  0  0
   34.9270   34.8620   16.1620 F   0  0  0  0  0  0  0  0  0  0  0  0
   34.5250   35.4020   18.9100 C   0  0  0  0  0  0  0  0  0  0  0  0
   34.3320   40.0540   23.0180 N   0  0  0  0  0  0  0  0  0  0  0  0
   34.1770   33.9880   21.4210 O   0  0  0  0  0  0  0  0  0  0  0  0
   34.2440   35.8630   22.7210 N   0  0  0  0  0  0  0  0  0  0  0  0
   34.1790   37.8270   24.0790 N   0  0  0  0  0  0  0  0  0  0  0  0
   34.0340   39.8270   25.3550 N   0  0  0  0  0  0  0  0  0  0  0  0
   31.8100   39.3810   26.9470 H   0  0  0  0  0  0  0  0  0  0  0  0
   32.8200   40.7710   27.5170 H   0  0  0  0  0  0  0  0  0  0  0  0
   32.0310   39.5910   29.5320 H   0  0  0  0  0  0  0  0  0  0  0  0
   32.5760   37.9680   28.8520 H   0  0  0  0  0  0  0  0  0  0  0  0
   35.0690   37.6570   28.8320 H   0  0  0  0  0  0  0  0  0  0  0  0
   36.0100   39.0940   29.4990 H   0  0  0  0  0  0  0  0  0  0  0  0
   35.5060   40.4330   27.4900 H   0  0  0  0  0  0  0  0  0  0  0  0
   36.1230   38.8340   26.9090 H   0  0  0  0  0  0  0  0  0  0  0  0
   37.2120   35.3850   15.0460 H   0  0  0  0  0  0  0  0  0  0  0  0
   33.8250   38.0070   26.4830 H   0  0  0  0  0  0  0  0  0  0  0  0
   34.6510   38.0660   19.5020 H   0  0  0  0  0  0  0  0  0  0  0  0
   39.0810   36.5680   18.7410 H   0  0  0  0  0  0  0  0  0  0  0  0
   36.9720   36.1800   19.9680 H   0  0  0  0  0  0  0  0  0  0  0  0
   34.5510   40.1160   20.9390 H   0  0  0  0  0  0  0  0  0  0  0  0
   34.9740   35.2920   24.6610 H   0  0  0  0  0  0  0  0  0  0  0  0
   33.1620   35.2440   24.4780 H   0  0  0  0  0  0  0  0  0  0  0  0
   34.1920   33.9490   23.6970 H   0  0  0  0  0  0  0  0  0  0  0  0
   34.0340   40.8650   25.4060 H   0  0  0  0  0  0  0  0  0  0  0  0
   39.2020   36.2340   16.2980 H   0  0  0  0  0  0  0  0  0  0  0  0
   34.3040   34.3060   19.0140 H   0  0  0  0  0  0  0  0  0  0  0  0
   33.7130   35.8500   18.2700 H   0  0  0  0  0  0  0  0  0  0  0  0
  1  2  1  0  0  0  0
  1 10  1  0  0  0  0
  1 28  1  0  0  0  0
  1 29  1  0  0  0  0
  2  6  1  0  0  0  0
  2 30  1  0  0  0  0
  2 31  1  0  0  0  0
  3  4  1  0  0  0  0
  3  6  1  0  0  0  0
  3 32  1  0  0  0  0
  3 33  1  0  0  0  0
  4 10  1  0  0  0  0
  4 34  1  0  0  0  0
  4 35  1  0  0  0  0
  5  8  2  0  0  0  0
  5 13  1  0  0  0  0
  5 36  1  0  0  0  0
  7 18  1  0  0  0  0
  7 24  2  0  0  0  0
  7 25  1  0  0  0  0
  8 19  1  0  0  0  0
  8 21  1  0  0  0  0
  9 23  2  0  0  0  0
  9 26  1  0  0  0  0
  9 27  1  0  0  0  0
 10 27  1  0  0  0  0
 10 37  1  0  0  0  0
 11 12  1  0  0  0  0
 11 16  1  0  0  0  0
 11 17  2  0  0  0  0
 12 18  2  0  0  0  0
 12 38  1  0  0  0  0
 13 14  2  0  0  0  0
 13 46  1  0  0  0  0
 14 15  1  0  0  0  0
 14 39  1  0  0  0  0
 15 19  2  0  0  0  0
 15 40  1  0  0  0  0
 16 25  1  0  0  0  0
 16 26  2  0  0  0  0
 17 23  1  0  0  0  0
 17 41  1  0  0  0  0
 18 22  1  0  0  0  0
 19 22  1  0  0  0  0
 20 25  1  0  0  0  0
 20 42  1  0  0  0  0
 20 43  1  0  0  0  0
 20 44  1  0  0  0  0
 22 47  1  0  0  0  0
 22 48  1  0  0  0  0
 27 45  1  0  0  0  0
M  END
$$$$
