p38a_2u
 OpenBabel02232411163D
Structure written by MMmdl.
 64 68  0  0  0  0  0  0  0  0999 V2000
   38.2570   36.5030   17.2210 C   0  0  0  0  0  0  0  0  0  0  0  0
   34.5060   35.1470   21.3540 C   0  0  0  0  0  0  0  0  0  0  0  0
   37.4870   36.0710   18.2980 C   0  0  0  0  0  0  0  0  0  0  0  0
   33.9890   39.2960   23.7890 C   0  0  0  0  0  0  0  0  0  0  0  0
   34.6130   38.0290   21.4210 C   0  0  0  0  0  0  0  0  0  0  0  0
   35.0280   37.3390   20.2310 C   0  0  0  0  0  0  0  0  0  0  0  0
   37.5930   36.6360   15.9940 C   0  0  0  0  0  0  0  0  0  0  0  0
   36.2410   36.3330   15.8130 C   0  0  0  0  0  0  0  0  0  0  0  0
   35.4930   35.8890   16.9090 C   0  0  0  0  0  0  0  0  0  0  0  0
   34.2120   37.2870   22.5700 C   0  0  0  0  0  0  0  0  0  0  0  0
   34.6050   39.4460   21.5330 C   0  0  0  0  0  0  0  0  0  0  0  0
   35.0120   35.9880   20.2290 C   0  0  0  0  0  0  0  0  0  0  0  0
   36.1220   35.7480   18.1490 C   0  0  0  0  0  0  0  0  0  0  0  0
   38.0380   35.9600   19.5000 F   0  0  0  0  0  0  0  0  0  0  0  0
   35.4200   35.1410   19.2000 O   0  0  0  0  0  0  0  0  0  0  0  0
   34.3070   40.0920   22.6700 N   0  0  0  0  0  0  0  0  0  0  0  0
   34.4210   33.9390   21.3120 O   0  0  0  0  0  0  0  0  0  0  0  0
   34.0930   35.8810   22.5210 N   0  0  0  0  0  0  0  0  0  0  0  0
   33.9280   37.9170   23.7550 N   0  0  0  0  0  0  0  0  0  0  0  0
   33.6560   39.9390   24.9610 N   0  0  0  0  0  0  0  0  0  0  0  0
   39.3130   36.7630   17.3350 H   0  0  0  0  0  0  0  0  0  0  0  0
   35.3560   37.9340   19.3760 H   0  0  0  0  0  0  0  0  0  0  0  0
   35.7580   36.4520   14.8400 H   0  0  0  0  0  0  0  0  0  0  0  0
   34.4260   35.6720   16.7900 H   0  0  0  0  0  0  0  0  0  0  0  0
   34.8490   40.0630   20.6530 H   0  0  0  0  0  0  0  0  0  0  0  0
   33.8040   40.9630   25.0420 H   0  0  0  0  0  0  0  0  0  0  0  0
   38.2780   37.1140   14.9580 F   0  0  0  0  0  0  0  0  0  0  0  0
   32.4630   39.3070   28.5350 C   0  0  0  0  0  0  0  0  0  0  0  0
   32.5100   39.9450   27.1410 C   0  0  0  0  0  0  0  0  0  0  0  0
   33.5410   39.2080   26.2610 C   0  0  0  0  0  0  0  0  0  0  0  0
   34.9130   39.1520   26.9700 C   0  0  0  0  0  0  0  0  0  0  0  0
   34.7500   38.5540   28.3730 C   0  0  0  0  0  0  0  0  0  0  0  0
   33.7710   39.2780   29.1520 O   0  0  0  0  0  0  0  0  0  0  0  0
   32.0620   38.2680   28.4850 H   0  0  0  0  0  0  0  0  0  0  0  0
   31.8820   39.9370   29.2460 H   0  0  0  0  0  0  0  0  0  0  0  0
   32.7920   41.0200   27.2370 H   0  0  0  0  0  0  0  0  0  0  0  0
   31.5040   39.8860   26.6630 H   0  0  0  0  0  0  0  0  0  0  0  0
   33.1770   38.1610   26.0630 H   0  0  0  0  0  0  0  0  0  0  0  0
   35.6160   38.5150   26.3810 H   0  0  0  0  0  0  0  0  0  0  0  0
   35.3430   40.1790   27.0430 H   0  0  0  0  0  0  0  0  0  0  0  0
   34.4470   37.4820   28.3140 H   0  0  0  0  0  0  0  0  0  0  0  0
   35.6780   38.6820   28.9760 H   0  0  0  0  0  0  0  0  0  0  0  0
   34.0310   33.9030   25.8440 C   0  0  0  0  0  0  0  0  0  0  0  0
   34.6510   34.4910   24.5550 C   0  0  0  0  0  0  0  0  0  0  0  0
   33.5380   35.1700   23.7360 C   0  0  0  0  0  0  0  0  0  0  0  0
   32.4650   34.1310   23.3640 C   0  0  0  0  0  0  0  0  0  0  0  0
   31.8610   33.5560   24.6610 C   0  0  0  0  0  0  0  0  0  0  0  0
   33.6720   34.7520   26.4900 H   0  0  0  0  0  0  0  0  0  0  0  0
   34.8450   33.3550   26.3870 H   0  0  0  0  0  0  0  0  0  0  0  0
   35.1340   33.6730   23.9720 H   0  0  0  0  0  0  0  0  0  0  0  0
   35.4260   35.2380   24.8510 H   0  0  0  0  0  0  0  0  0  0  0  0
   33.0470   35.9530   24.3890 H   0  0  0  0  0  0  0  0  0  0  0  0
   31.6490   34.6070   22.7720 H   0  0  0  0  0  0  0  0  0  0  0  0
   32.9160   33.3000   22.7670 H   0  0  0  0  0  0  0  0  0  0  0  0
   31.3200   34.3800   25.2030 H   0  0  0  0  0  0  0  0  0  0  0  0
   31.1350   32.7500   24.3720 H   0  0  0  0  0  0  0  0  0  0  0  0
   32.9210   32.9480   25.5280 N   0  0  0  0  0  0  0  0  0  0  0  0
   32.3410   31.9610   26.8270 S   0  0  0  0  0  0  0  0  0  0  0  0
   31.3680   31.0140   26.2430 O   0  0  0  0  0  0  0  0  0  0  0  0
   31.7250   32.7780   27.8890 O   0  0  0  0  0  0  0  0  0  0  0  0
   33.7530   31.1380   27.4050 C   0  0  0  0  0  0  0  0  0  0  0  0
   34.3850   30.7530   26.5640 H   0  0  0  0  0  0  0  0  0  0  0  0
   34.3910   31.7890   28.0610 H   0  0  0  0  0  0  0  0  0  0  0  0
   33.4800   30.2480   28.0370 H   0  0  0  0  0  0  0  0  0  0  0  0
  1  3  2  0  0  0  0
  1  7  1  0  0  0  0
  1 21  1  0  0  0  0
  2 12  1  0  0  0  0
  2 17  2  0  0  0  0
  2 18  1  0  0  0  0
  3 13  1  0  0  0  0
  3 14  1  0  0  0  0
  4 16  2  0  0  0  0
  4 19  1  0  0  0  0
  4 20  1  0  0  0  0
  5  6  1  0  0  0  0
  5 10  1  0  0  0  0
  5 11  2  0  0  0  0
  6 12  2  0  0  0  0
  6 22  1  0  0  0  0
  7  8  2  0  0  0  0
  7 27  1  0  0  0  0
  8  9  1  0  0  0  0
  8 23  1  0  0  0  0
  9 13  2  0  0  0  0
  9 24  1  0  0  0  0
 10 18  1  0  0  0  0
 10 19  2  0  0  0  0
 11 16  1  0  0  0  0
 11 25  1  0  0  0  0
 12 15  1  0  0  0  0
 13 15  1  0  0  0  0
 18 45  1  0  0  0  0
 20 26  1  0  0  0  0
 20 30  1  0  0  0  0
 28 29  1  0  0  0  0
 28 33  1  0  0  0  0
 28 34  1  0  0  0  0
 28 35  1  0  0  0  0
 29 30  1  0  0  0  0
 29 36  1  0  0  0  0
 29 37  1  0  0  0  0
 30 31  1  0  0  0  0
 30 38  1  0  0  0  0
 31 32  1  0  0  0  0
 31 39  1  0  0  0  0
 31 40  1  0  0  0  0
 32 33  1  0  0  0  0
 32 41  1  0  0  0  0
 32 42  1  0  0  0  0
 43 44  1  0  0  0  0
 43 48  1  0  0  0  0
 43 49  1  0  0  0  0
 43 57  1  0  0  0  0
 44 45  1  0  0  0  0
 44 50  1  0  0  0  0
 44 51  1  0  0  0  0
 45 46  1  0  0  0  0
 45 52  1  0  0  0  0
 46 47  1  0  0  0  0
 46 53  1  0  0  0  0
 46 54  1  0  0  0  0
 47 55  1  0  0  0  0
 47 56  1  0  0  0  0
 47 57  1  0  0  0  0
 57 58  1  0  0  0  0
 58 59  2  0  0  0  0
 58 60  2  0  0  0  0
 58 61  1  0  0  0  0
 61 62  1  0  0  0  0
 61 63  1  0  0  0  0
 61 64  1  0  0  0  0
M  END
$$$$
