p38a_2p
 OpenBabel02232411163D
Structure written by MMmdl.
 58 61  0  0  0  0  0  0  0  0999 V2000
   36.3000   35.7930   16.1020 C   0  0  0  0  0  0  0  0  0  0  0  0
   34.4950   35.0440   21.7530 C   0  0  0  0  0  0  0  0  0  0  0  0
   35.5280   35.4070   17.1930 C   0  0  0  0  0  0  0  0  0  0  0  0
   34.2940   39.2290   24.1700 C   0  0  0  0  0  0  0  0  0  0  0  0
   34.7170   37.9140   21.7850 C   0  0  0  0  0  0  0  0  0  0  0  0
   34.9940   37.2010   20.5690 C   0  0  0  0  0  0  0  0  0  0  0  0
   37.5870   36.2720   16.3840 C   0  0  0  0  0  0  0  0  0  0  0  0
   38.1210   36.3310   17.6740 C   0  0  0  0  0  0  0  0  0  0  0  0
   37.3180   35.9550   18.7560 C   0  0  0  0  0  0  0  0  0  0  0  0
   34.4670   37.1970   22.9920 C   0  0  0  0  0  0  0  0  0  0  0  0
   34.6970   39.3340   21.8630 C   0  0  0  0  0  0  0  0  0  0  0  0
   34.9240   35.8500   20.5780 C   0  0  0  0  0  0  0  0  0  0  0  0
   36.0180   35.4990   18.5120 C   0  0  0  0  0  0  0  0  0  0  0  0
   34.3070   34.9190   17.0140 F   0  0  0  0  0  0  0  0  0  0  0  0
   35.1620   34.9950   19.5000 O   0  0  0  0  0  0  0  0  0  0  0  0
   34.4830   40.0030   23.0050 N   0  0  0  0  0  0  0  0  0  0  0  0
   34.2430   33.8610   21.7380 O   0  0  0  0  0  0  0  0  0  0  0  0
   34.3850   35.7920   22.9830 N   0  0  0  0  0  0  0  0  0  0  0  0
   34.2850   37.8480   24.1840 N   0  0  0  0  0  0  0  0  0  0  0  0
   34.0610   39.8970   25.3450 N   0  0  0  0  0  0  0  0  0  0  0  0
   35.9170   35.7570   15.0780 H   0  0  0  0  0  0  0  0  0  0  0  0
   35.2690   37.7810   19.6830 H   0  0  0  0  0  0  0  0  0  0  0  0
   39.1390   36.6950   17.8380 H   0  0  0  0  0  0  0  0  0  0  0  0
   37.7000   36.0440   19.7750 H   0  0  0  0  0  0  0  0  0  0  0  0
   34.8580   39.9340   20.9500 H   0  0  0  0  0  0  0  0  0  0  0  0
   34.0750   40.9350   25.3680 H   0  0  0  0  0  0  0  0  0  0  0  0
   38.3230   36.7230   15.3710 F   0  0  0  0  0  0  0  0  0  0  0  0
   32.7690   39.2280   28.8760 C   0  0  0  0  0  0  0  0  0  0  0  0
   32.7870   39.8070   27.4560 C   0  0  0  0  0  0  0  0  0  0  0  0
   33.9720   39.2100   26.6670 C   0  0  0  0  0  0  0  0  0  0  0  0
   35.2940   39.4090   27.4420 C   0  0  0  0  0  0  0  0  0  0  0  0
   35.1520   38.8590   28.8670 C   0  0  0  0  0  0  0  0  0  0  0  0
   34.0250   39.4460   29.5570 O   0  0  0  0  0  0  0  0  0  0  0  0
   32.5530   38.1340   28.8530 H   0  0  0  0  0  0  0  0  0  0  0  0
   32.0480   39.7770   29.5250 H   0  0  0  0  0  0  0  0  0  0  0  0
   32.8850   40.9180   27.5020 H   0  0  0  0  0  0  0  0  0  0  0  0
   31.8310   39.5570   26.9380 H   0  0  0  0  0  0  0  0  0  0  0  0
   33.7950   38.1100   26.5070 H   0  0  0  0  0  0  0  0  0  0  0  0
   36.1170   38.8670   26.9190 H   0  0  0  0  0  0  0  0  0  0  0  0
   35.5520   40.4950   27.4770 H   0  0  0  0  0  0  0  0  0  0  0  0
   35.0290   37.7510   28.8500 H   0  0  0  0  0  0  0  0  0  0  0  0
   36.0120   39.1660   29.5050 H   0  0  0  0  0  0  0  0  0  0  0  0
   34.1640   35.0670   24.2800 C   0  0  0  0  0  0  0  0  0  0  0  0
   34.4590   33.9940   24.1380 H   0  0  0  0  0  0  0  0  0  0  0  0
   34.8480   35.5240   25.0510 H   0  0  0  0  0  0  0  0  0  0  0  0
   32.6940   35.1610   24.7510 C   0  0  0  0  0  0  0  0  0  0  0  0
   32.2680   36.1420   24.4070 H   0  0  0  0  0  0  0  0  0  0  0  0
   32.0950   34.3490   24.2720 H   0  0  0  0  0  0  0  0  0  0  0  0
   32.5600   35.1230   26.2800 C   0  0  0  0  0  0  0  0  0  0  0  0
   31.7660   35.8690   26.5720 H   0  0  0  0  0  0  0  0  0  0  0  0
   33.5030   35.5170   26.7510 H   0  0  0  0  0  0  0  0  0  0  0  0
   32.1600   33.5540   26.9670 S   0  0  0  0  0  0  0  0  0  0  0  0
   31.2170   32.8140   26.0940 O   0  0  0  0  0  0  0  0  0  0  0  0
   31.5850   33.7140   28.3290 O   0  0  0  0  0  0  0  0  0  0  0  0
   33.6690   32.6950   27.0800 C   0  0  0  0  0  0  0  0  0  0  0  0
   34.4600   33.3140   27.5800 H   0  0  0  0  0  0  0  0  0  0  0  0
   33.5730   31.7530   27.6780 H   0  0  0  0  0  0  0  0  0  0  0  0
   34.0740   32.4030   26.0790 H   0  0  0  0  0  0  0  0  0  0  0  0
  1  3  2  0  0  0  0
  1  7  1  0  0  0  0
  1 21  1  0  0  0  0
  2 12  1  0  0  0  0
  2 17  2  0  0  0  0
  2 18  1  0  0  0  0
  3 13  1  0  0  0  0
  3 14  1  0  0  0  0
  4 16  2  0  0  0  0
  4 19  1  0  0  0  0
  4 20  1  0  0  0  0
  5  6  1  0  0  0  0
  5 10  1  0  0  0  0
  5 11  2  0  0  0  0
  6 12  2  0  0  0  0
  6 22  1  0  0  0  0
  7  8  2  0  0  0  0
  7 27  1  0  0  0  0
  8  9  1  0  0  0  0
  8 23  1  0  0  0  0
  9 13  2  0  0  0  0
  9 24  1  0  0  0  0
 10 18  1  0  0  0  0
 10 19  2  0  0  0  0
 11 16  1  0  0  0  0
 11 25  1  0  0  0  0
 12 15  1  0  0  0  0
 13 15  1  0  0  0  0
 18 43  1  0  0  0  0
 20 26  1  0  0  0  0
 20 30  1  0  0  0  0
 28 29  1  0  0  0  0
 28 33  1  0  0  0  0
 28 34  1  0  0  0  0
 28 35  1  0  0  0  0
 29 30  1  0  0  0  0
 29 36  1  0  0  0  0
 29 37  1  0  0  0  0
 30 31  1  0  0  0  0
 30 38  1  0  0  0  0
 31 32  1  0  0  0  0
 31 39  1  0  0  0  0
 31 40  1  0  0  0  0
 32 33  1  0  0  0  0
 32 41  1  0  0  0  0
 32 42  1  0  0  0  0
 43 44  1  0  0  0  0
 43 45  1  0  0  0  0
 43 46  1  0  0  0  0
 46 47  1  0  0  0  0
 46 48  1  0  0  0  0
 46 49  1  0  0  0  0
 49 50  1  0  0  0  0
 49 51  1  0  0  0  0
 49 52  1  0  0  0  0
 52 53  2  0  0  0  0
 52 54  2  0  0  0  0
 52 55  1  0  0  0  0
 55 56  1  0  0  0  0
 55 57  1  0  0  0  0
 55 58  1  0  0  0  0
M  END
$$$$
