p38a_2x
 OpenBabel02232411163D
Structure written by MMmdl.
 43 46  0  0  1  0  0  0  0  0999 V2000
   38.2890   36.5390   17.1550 C   0  0  0  0  0  0  0  0  0  0  0  0
   34.4990   35.1000   21.1960 C   0  0  0  0  0  0  0  0  0  0  0  0
   37.5010   36.0790   18.2070 C   0  0  0  0  0  0  0  0  0  0  0  0
   33.9260   39.1920   23.7110 C   0  0  0  0  0  0  0  0  0  0  0  0
   34.6350   37.9730   21.3430 C   0  0  0  0  0  0  0  0  0  0  0  0
   35.0540   37.3080   20.1400 C   0  0  0  0  0  0  0  0  0  0  0  0
   37.6460   36.7020   15.9200 C   0  0  0  0  0  0  0  0  0  0  0  0
   36.2980   36.4030   15.7080 C   0  0  0  0  0  0  0  0  0  0  0  0
   35.5310   35.9280   16.7770 C   0  0  0  0  0  0  0  0  0  0  0  0
   34.1990   37.2150   22.4700 C   0  0  0  0  0  0  0  0  0  0  0  0
   34.6460   39.3860   21.4840 C   0  0  0  0  0  0  0  0  0  0  0  0
   35.0180   35.9570   20.0970 C   0  0  0  0  0  0  0  0  0  0  0  0
   36.1400   35.7580   18.0240 C   0  0  0  0  0  0  0  0  0  0  0  0
   33.6310   35.0450   23.5630 C   0  0  0  0  0  0  0  0  0  0  0  0
   38.0270   35.9420   19.4160 F   0  0  0  0  0  0  0  0  0  0  0  0
   35.4170   35.1310   19.0480 O   0  0  0  0  0  0  0  0  0  0  0  0
   34.3120   40.0050   22.6250 N   0  0  0  0  0  0  0  0  0  0  0  0
   34.3790   33.8950   21.1520 O   0  0  0  0  0  0  0  0  0  0  0  0
   34.1260   35.8160   22.3880 N   0  0  0  0  0  0  0  0  0  0  0  0
   33.8430   37.8190   23.6540 N   0  0  0  0  0  0  0  0  0  0  0  0
   33.6850   39.8610   24.8980 N   0  0  0  0  0  0  0  0  0  0  0  0
   39.3420   36.7990   17.2940 H   0  0  0  0  0  0  0  0  0  0  0  0
   35.3970   37.9220   19.3040 H   0  0  0  0  0  0  0  0  0  0  0  0
   35.8310   36.5500   14.7310 H   0  0  0  0  0  0  0  0  0  0  0  0
   34.4680   35.7110   16.6320 H   0  0  0  0  0  0  0  0  0  0  0  0
   34.9240   40.0210   20.6270 H   0  0  0  0  0  0  0  0  0  0  0  0
   34.2640   35.2690   24.4630 H   0  0  0  0  0  0  0  0  0  0  0  0
   32.5700   35.3380   23.7870 H   0  0  0  0  0  0  0  0  0  0  0  0
   33.6710   33.9450   23.3500 H   0  0  0  0  0  0  0  0  0  0  0  0
   33.7220   40.9030   24.8770 H   0  0  0  0  0  0  0  0  0  0  0  0
   38.3470   37.2060   14.9080 F   0  0  0  0  0  0  0  0  0  0  0  0
   32.5980   37.3910   27.3970 O   0  0  0  0  0  0  0  0  0  0  0  0
   31.4350   37.4340   26.5200 C   0  0  0  0  0  0  0  0  0  0  0  0
   31.5260   38.7220   25.6860 C   0  0  0  0  0  0  0  0  0  0  0  0
   32.8980   39.3430   26.0450 C   0  0  1  0  0  0  0  0  0  0  0  0
   33.6360   38.2360   26.8430 C   0  0  0  0  0  0  0  0  0  0  0  0
   30.5680   37.4280   27.2140 H   0  0  0  0  0  0  0  0  0  0  0  0
   31.4670   36.5230   25.8840 H   0  0  0  0  0  0  0  0  0  0  0  0
   31.4470   38.4890   24.6000 H   0  0  0  0  0  0  0  0  0  0  0  0
   30.7060   39.4260   25.9400 H   0  0  0  0  0  0  0  0  0  0  0  0
   32.7400   40.2420   26.7100 H   0  0  0  0  0  0  0  0  0  0  0  0
   34.1760   38.6370   27.7280 H   0  0  0  0  0  0  0  0  0  0  0  0
   34.2900   37.6070   26.2000 H   0  0  0  0  0  0  0  0  0  0  0  0
  1  3  2  0  0  0  0
  1  7  1  0  0  0  0
  1 22  1  0  0  0  0
  2 12  1  0  0  0  0
  2 18  2  0  0  0  0
  2 19  1  0  0  0  0
  3 13  1  0  0  0  0
  3 15  1  0  0  0  0
  4 17  2  0  0  0  0
  4 20  1  0  0  0  0
  4 21  1  0  0  0  0
  5  6  1  0  0  0  0
  5 10  1  0  0  0  0
  5 11  2  0  0  0  0
  6 12  2  0  0  0  0
  6 23  1  0  0  0  0
  7  8  2  0  0  0  0
  7 31  1  0  0  0  0
  8  9  1  0  0  0  0
  8 24  1  0  0  0  0
  9 13  2  0  0  0  0
  9 25  1  0  0  0  0
 10 19  1  0  0  0  0
 10 20  2  0  0  0  0
 11 17  1  0  0  0  0
 11 26  1  0  0  0  0
 12 16  1  0  0  0  0
 13 16  1  0  0  0  0
 14 19  1  0  0  0  0
 14 27  1  0  0  0  0
 14 28  1  0  0  0  0
 14 29  1  0  0  0  0
 21 30  1  0  0  0  0
 21 35  1  0  0  0  0
 32 33  1  0  0  0  0
 32 36  1  0  0  0  0
 33 34  1  0  0  0  0
 33 37  1  0  0  0  0
 33 38  1  0  0  0  0
 34 35  1  0  0  0  0
 34 39  1  0  0  0  0
 34 40  1  0  0  0  0
 35 36  1  0  0  0  0
 35 41  1  1  0  0  0
 36 42  1  0  0  0  0
 36 43  1  0  0  0  0
M  END
$$$$
