p38a_2aa
 OpenBabel02232411163D
Structure written by MMmdl.
 43 45  0  0  0  0  0  0  0  0999 V2000
   38.2720   36.5370   17.1430 C   0  0  0  0  0  0  0  0  0  0  0  0
   34.5740   35.0840   21.1760 C   0  0  0  0  0  0  0  0  0  0  0  0
   37.4630   36.0710   18.1750 C   0  0  0  0  0  0  0  0  0  0  0  0
   34.1530   39.1640   23.7360 C   0  0  0  0  0  0  0  0  0  0  0  0
   33.5530   39.0940   26.1810 C   0  0  0  0  0  0  0  0  0  0  0  0
   34.6690   37.9620   21.3170 C   0  0  0  0  0  0  0  0  0  0  0  0
   35.0100   37.3030   20.0860 C   0  0  0  0  0  0  0  0  0  0  0  0
   37.6520   36.7150   15.8990 C   0  0  0  0  0  0  0  0  0  0  0  0
   36.3070   36.4260   15.6590 C   0  0  0  0  0  0  0  0  0  0  0  0
   35.5180   35.9440   16.7090 C   0  0  0  0  0  0  0  0  0  0  0  0
   34.3720   37.1900   22.4800 C   0  0  0  0  0  0  0  0  0  0  0  0
   34.6340   39.3750   21.4530 C   0  0  0  0  0  0  0  0  0  0  0  0
   35.0010   35.9510   20.0470 C   0  0  0  0  0  0  0  0  0  0  0  0
   36.1020   35.7600   17.9650 C   0  0  0  0  0  0  0  0  0  0  0  0
   34.0280   35.0110   23.6410 C   0  0  0  0  0  0  0  0  0  0  0  0
   37.9670   35.9190   19.3930 F   0  0  0  0  0  0  0  0  0  0  0  0
   35.3480   35.1370   18.9690 O   0  0  0  0  0  0  0  0  0  0  0  0
   34.3840   39.9890   22.6210 N   0  0  0  0  0  0  0  0  0  0  0  0
   34.4270   33.8820   21.1290 O   0  0  0  0  0  0  0  0  0  0  0  0
   34.3270   35.7900   22.4070 N   0  0  0  0  0  0  0  0  0  0  0  0
   34.1170   37.7860   23.6920 N   0  0  0  0  0  0  0  0  0  0  0  0
   33.9870   39.7970   24.9500 N   0  0  0  0  0  0  0  0  0  0  0  0
   39.3240   36.7890   17.3040 H   0  0  0  0  0  0  0  0  0  0  0  0
   34.7390   39.1280   27.1860 C   0  0  0  0  0  0  0  0  0  0  0  0
   35.2810   37.9220   19.2280 H   0  0  0  0  0  0  0  0  0  0  0  0
   35.8580   36.5870   14.6770 H   0  0  0  0  0  0  0  0  0  0  0  0
   34.4570   35.7330   16.5430 H   0  0  0  0  0  0  0  0  0  0  0  0
   34.8080   40.0190   20.5750 H   0  0  0  0  0  0  0  0  0  0  0  0
   34.7800   35.2560   24.4390 H   0  0  0  0  0  0  0  0  0  0  0  0
   33.0040   35.2740   24.0230 H   0  0  0  0  0  0  0  0  0  0  0  0
   34.0670   33.9110   23.4250 H   0  0  0  0  0  0  0  0  0  0  0  0
   33.9470   40.8330   24.9900 H   0  0  0  0  0  0  0  0  0  0  0  0
   38.3730   37.2270   14.9040 F   0  0  0  0  0  0  0  0  0  0  0  0
   32.2990   39.8120   26.7540 C   0  0  0  0  0  0  0  0  0  0  0  0
   31.7130   39.0400   27.8030 O   0  0  0  0  0  0  0  0  0  0  0  0
   32.4490   38.7550   28.4210 H   0  0  0  0  0  0  0  0  0  0  0  0
   32.5700   40.8180   27.1540 H   0  0  0  0  0  0  0  0  0  0  0  0
   31.4930   39.8860   25.9870 H   0  0  0  0  0  0  0  0  0  0  0  0
   34.4210   38.3300   28.3410 O   0  0  0  0  0  0  0  0  0  0  0  0
   35.6700   38.7480   26.7080 H   0  0  0  0  0  0  0  0  0  0  0  0
   34.8900   40.1480   27.6110 H   0  0  0  0  0  0  0  0  0  0  0  0
   34.4790   37.3670   28.1050 H   0  0  0  0  0  0  0  0  0  0  0  0
   33.2900   38.0210   25.9600 H   0  0  0  0  0  0  0  0  0  0  0  0
  1  3  2  0  0  0  0
  1  8  1  0  0  0  0
  1 23  1  0  0  0  0
  2 13  1  0  0  0  0
  2 19  2  0  0  0  0
  2 20  1  0  0  0  0
  3 14  1  0  0  0  0
  3 16  1  0  0  0  0
  4 18  2  0  0  0  0
  4 21  1  0  0  0  0
  4 22  1  0  0  0  0
  5 22  1  0  0  0  0
  5 24  1  0  0  0  0
  5 34  1  0  0  0  0
  5 43  1  0  0  0  0
  6  7  1  0  0  0  0
  6 11  1  0  0  0  0
  6 12  2  0  0  0  0
  7 13  2  0  0  0  0
  7 25  1  0  0  0  0
  8  9  2  0  0  0  0
  8 33  1  0  0  0  0
  9 10  1  0  0  0  0
  9 26  1  0  0  0  0
 10 14  2  0  0  0  0
 10 27  1  0  0  0  0
 11 20  1  0  0  0  0
 11 21  2  0  0  0  0
 12 18  1  0  0  0  0
 12 28  1  0  0  0  0
 13 17  1  0  0  0  0
 14 17  1  0  0  0  0
 15 20  1  0  0  0  0
 15 29  1  0  0  0  0
 15 30  1  0  0  0  0
 15 31  1  0  0  0  0
 22 32  1  0  0  0  0
 24 39  1  0  0  0  0
 24 40  1  0  0  0  0
 24 41  1  0  0  0  0
 34 35  1  0  0  0  0
 34 37  1  0  0  0  0
 34 38  1  0  0  0  0
 35 36  1  0  0  0  0
 39 42  1  0  0  0  0
M  END
$$$$
