2ff
                    3D
 Schrodinger Suite 2022-3.
 49 52  0  0  1  0  0  0  0  0999 V2000
   26.5750    9.6390   30.3360 C   0  0  0  0  0  0  0  0  0  0  0  0
   27.7920   10.4970   30.6830 C   0  0  0  0  0  0  0  0  0  0  0  0
   28.7750    8.5690   32.0280 C   0  0  0  0  0  0  0  0  0  0  0  0
   27.4870    7.7650   31.7790 C   0  0  0  0  0  0  0  0  0  0  0  0
   15.8070   10.4510   31.6490 C   0  0  0  0  0  0  0  0  0  0  0  0
   29.0080    9.5760   30.8920 C   0  0  2  0  0  0  0  0  0  0  0  0
   21.1670   12.5270   31.3560 C   0  0  0  0  0  0  0  0  0  0  0  0
   17.0890   10.9760   31.7820 C   0  0  0  0  0  0  0  0  0  0  0  0
   23.8350    8.5040   31.0960 C   0  0  0  0  0  0  0  0  0  0  0  0
   26.2850    8.7060   31.5360 C   0  0  2  0  0  0  0  0  0  0  0  0
   21.3750    9.7080   30.7770 C   0  0  0  0  0  0  0  0  0  0  0  0
   20.0990   10.3590   30.6700 C   0  0  0  0  0  0  0  0  0  0  0  0
   15.1280   10.7450   30.4600 C   0  0  0  0  0  0  0  0  0  0  0  0
   15.6750   11.5200   29.4360 C   0  0  0  0  0  0  0  0  0  0  0  0
   16.9580   12.0520   29.5990 C   0  0  0  0  0  0  0  0  0  0  0  0
   22.4960   10.4320   31.2790 C   0  0  0  0  0  0  0  0  0  0  0  0
   21.5980    8.3530   30.4140 C   0  0  0  0  0  0  0  0  0  0  0  0
   20.0090   11.6720   30.9850 C   0  0  0  0  0  0  0  0  0  0  0  0
   17.6560   11.7920   30.7820 C   0  0  0  0  0  0  0  0  0  0  0  0
   23.5900   12.5290   32.0690 C   0  0  0  0  0  0  0  0  0  0  0  0
   17.8070   10.6920   32.8620 F   0  0  0  0  0  0  0  0  0  0  0  0
   13.9100   10.2360   30.2880 F   0  0  0  0  0  0  0  0  0  0  0  0
   18.8640   12.4640   31.0020 O   0  0  0  0  0  0  0  0  0  0  0  0
   22.7830    7.7400   30.5580 N   0  0  0  0  0  0  0  0  0  0  0  0
   21.1460   13.7320   31.4870 O   0  0  0  0  0  0  0  0  0  0  0  0
   22.3870   11.8010   31.5760 N   0  0  0  0  0  0  0  0  0  0  0  0
   23.7130    9.8310   31.4600 N   0  0  0  0  0  0  0  0  0  0  0  0
   25.0520    7.8870   31.3040 N   0  0  0  0  0  0  0  0  0  0  0  0
   15.1290   11.7000   28.5090 H   0  0  0  0  0  0  0  0  0  0  0  0
   17.4070   12.6570   28.8040 H   0  0  0  0  0  0  0  0  0  0  0  0
   15.3760    9.8110   32.4180 H   0  0  0  0  0  0  0  0  0  0  0  0
   19.2460    9.7660   30.3430 H   0  0  0  0  0  0  0  0  0  0  0  0
   20.7770    7.7630   29.9770 H   0  0  0  0  0  0  0  0  0  0  0  0
   26.7770    9.0340   29.4220 H   0  0  0  0  0  0  0  0  0  0  0  0
   25.7080   10.3110   30.1380 H   0  0  0  0  0  0  0  0  0  0  0  0
   27.5930   11.0880   31.6080 H   0  0  0  0  0  0  0  0  0  0  0  0
   27.9980   11.2170   29.8630 H   0  0  0  0  0  0  0  0  0  0  0  0
   29.6350    7.8600   32.0850 H   0  0  0  0  0  0  0  0  0  0  0  0
   28.6960    9.1060   33.0040 H   0  0  0  0  0  0  0  0  0  0  0  0
   27.2830    7.1180   32.6660 H   0  0  0  0  0  0  0  0  0  0  0  0
   27.6300    7.1020   30.8930 H   0  0  0  0  0  0  0  0  0  0  0  0
   26.1040    9.3250   32.4580 H   0  0  0  0  0  0  0  0  0  0  0  0
   24.0130   11.9990   32.9650 H   0  0  0  0  0  0  0  0  0  0  0  0
   24.3780   12.5520   31.2680 H   0  0  0  0  0  0  0  0  0  0  0  0
   23.3200   13.5790   32.3500 H   0  0  0  0  0  0  0  0  0  0  0  0
   25.2080    6.9400   30.9030 H   0  0  0  0  0  0  0  0  0  0  0  0
   29.2720    9.0590   29.9430 H   0  0  0  0  0  0  0  0  0  0  0  0
   30.1600   10.3870   31.2370 O   0  0  0  0  0  0  0  0  0  0  0  0
   30.3410   10.9160   30.3630 H   0  0  0  0  0  0  0  0  0  0  0  0
  1  2  1  0  0  0  0
  1 10  1  0  0  0  0
  1 34  1  0  0  0  0
  1 35  1  0  0  0  0
  2  6  1  0  0  0  0
  2 36  1  0  0  0  0
  2 37  1  0  0  0  0
  3  4  1  0  0  0  0
  3  6  1  0  0  0  0
  3 38  1  0  0  0  0
  3 39  1  0  0  0  0
  4 10  1  0  0  0  0
  4 40  1  0  0  0  0
  4 41  1  0  0  0  0
  5  8  1  0  0  0  0
  5 13  2  0  0  0  0
  5 31  1  0  0  0  0
  6 47  1  0  0  0  0
  6 48  1  0  0  0  0
  7 18  1  0  0  0  0
  7 25  2  0  0  0  0
  7 26  1  0  0  0  0
  8 19  2  0  0  0  0
  8 21  1  0  0  0  0
  9 24  1  0  0  0  0
  9 27  2  0  0  0  0
  9 28  1  0  0  0  0
 10 28  1  0  0  0  0
 10 42  1  0  0  0  0
 11 12  1  0  0  0  0
 11 16  2  0  0  0  0
 11 17  1  0  0  0  0
 12 18  2  0  0  0  0
 12 32  1  0  0  0  0
 13 14  1  0  0  0  0
 13 22  1  0  0  0  0
 14 15  2  0  0  0  0
 14 29  1  0  0  0  0
 15 19  1  0  0  0  0
 15 30  1  0  0  0  0
 16 26  1  0  0  0  0
 16 27  1  0  0  0  0
 17 24  2  0  0  0  0
 17 33  1  0  0  0  0
 18 23  1  0  0  0  0
 19 23  1  0  0  0  0
 20 26  1  0  0  0  0
 20 43  1  0  0  0  0
 20 44  1  0  0  0  0
 20 45  1  0  0  0  0
 28 46  1  0  0  0  0
 48 49  1  0  0  0  0
M  END
$$$$
