p38a_2x
 OpenBabel02232411163D
Structure written by MMmdl.
 43 46  0  0  1  0  0  0  0  0999 V2000
   36.3630   36.0080   15.8390 C   0  0  0  0  0  0  0  0  0  0  0  0
   34.5930   35.0200   21.4320 C   0  0  0  0  0  0  0  0  0  0  0  0
   35.6570   35.5540   16.9490 C   0  0  0  0  0  0  0  0  0  0  0  0
   34.2400   39.1020   23.9920 C   0  0  0  0  0  0  0  0  0  0  0  0
   34.7820   37.8860   21.5800 C   0  0  0  0  0  0  0  0  0  0  0  0
   35.1470   37.2190   20.3580 C   0  0  0  0  0  0  0  0  0  0  0  0
   37.6550   36.4950   16.0760 C   0  0  0  0  0  0  0  0  0  0  0  0
   38.2560   36.5020   17.3380 C   0  0  0  0  0  0  0  0  0  0  0  0
   37.5130   36.0750   18.4440 C   0  0  0  0  0  0  0  0  0  0  0  0
   34.4780   37.1220   22.7460 C   0  0  0  0  0  0  0  0  0  0  0  0
   34.7250   39.2990   21.7050 C   0  0  0  0  0  0  0  0  0  0  0  0
   35.0940   35.8680   20.3160 C   0  0  0  0  0  0  0  0  0  0  0  0
   36.2120   35.6040   18.2450 C   0  0  0  0  0  0  0  0  0  0  0  0
   34.1080   34.9460   23.9100 C   0  0  0  0  0  0  0  0  0  0  0  0
   34.4400   35.0460   16.8120 F   0  0  0  0  0  0  0  0  0  0  0  0
   35.4240   35.0320   19.2510 O   0  0  0  0  0  0  0  0  0  0  0  0
   34.4570   39.9190   22.8660 N   0  0  0  0  0  0  0  0  0  0  0  0
   34.3440   33.8370   21.3590 O   0  0  0  0  0  0  0  0  0  0  0  0
   34.4050   35.7230   22.6740 N   0  0  0  0  0  0  0  0  0  0  0  0
   34.2310   37.7230   23.9560 N   0  0  0  0  0  0  0  0  0  0  0  0
   33.9450   39.7400   25.1810 N   0  0  0  0  0  0  0  0  0  0  0  0
   35.9240   36.0090   14.8380 H   0  0  0  0  0  0  0  0  0  0  0  0
   35.4730   37.8320   19.5140 H   0  0  0  0  0  0  0  0  0  0  0  0
   39.2790   36.8660   17.4670 H   0  0  0  0  0  0  0  0  0  0  0  0
   37.9460   36.1350   19.4450 H   0  0  0  0  0  0  0  0  0  0  0  0
   34.9050   39.9370   20.8230 H   0  0  0  0  0  0  0  0  0  0  0  0
   34.8560   35.2020   24.7090 H   0  0  0  0  0  0  0  0  0  0  0  0
   33.0820   35.2000   24.2900 H   0  0  0  0  0  0  0  0  0  0  0  0
   34.1630   33.8460   23.7000 H   0  0  0  0  0  0  0  0  0  0  0  0
   33.9700   40.7800   25.2140 H   0  0  0  0  0  0  0  0  0  0  0  0
   38.3260   37.0090   15.0480 F   0  0  0  0  0  0  0  0  0  0  0  0
   33.2830   39.3950   28.7410 O   0  0  0  0  0  0  0  0  0  0  0  0
   34.7020   39.7340   28.7560 C   0  0  0  0  0  0  0  0  0  0  0  0
   35.2440   39.5570   27.3300 C   0  0  0  0  0  0  0  0  0  0  0  0
   34.0330   39.0630   26.4960 C   0  0  1  0  0  0  0  0  0  0  0  0
   32.8070   39.4390   27.3740 C   0  0  0  0  0  0  0  0  0  0  0  0
   35.1510   39.0230   29.4830 H   0  0  0  0  0  0  0  0  0  0  0  0
   34.7830   40.7870   29.1060 H   0  0  0  0  0  0  0  0  0  0  0  0
   35.6290   40.5310   26.9430 H   0  0  0  0  0  0  0  0  0  0  0  0
   36.0740   38.8190   27.2970 H   0  0  0  0  0  0  0  0  0  0  0  0
   34.0880   37.9490   26.3580 H   0  0  0  0  0  0  0  0  0  0  0  0
   31.9930   38.6870   27.3300 H   0  0  0  0  0  0  0  0  0  0  0  0
   32.4490   40.4710   27.1620 H   0  0  0  0  0  0  0  0  0  0  0  0
  1  3  2  0  0  0  0
  1  7  1  0  0  0  0
  1 22  1  0  0  0  0
  2 12  1  0  0  0  0
  2 18  2  0  0  0  0
  2 19  1  0  0  0  0
  3 13  1  0  0  0  0
  3 15  1  0  0  0  0
  4 17  2  0  0  0  0
  4 20  1  0  0  0  0
  4 21  1  0  0  0  0
  5  6  1  0  0  0  0
  5 10  1  0  0  0  0
  5 11  2  0  0  0  0
  6 12  2  0  0  0  0
  6 23  1  0  0  0  0
  7  8  2  0  0  0  0
  7 31  1  0  0  0  0
  8  9  1  0  0  0  0
  8 24  1  0  0  0  0
  9 13  2  0  0  0  0
  9 25  1  0  0  0  0
 10 19  1  0  0  0  0
 10 20  2  0  0  0  0
 11 17  1  0  0  0  0
 11 26  1  0  0  0  0
 12 16  1  0  0  0  0
 13 16  1  0  0  0  0
 14 19  1  0  0  0  0
 14 27  1  0  0  0  0
 14 28  1  0  0  0  0
 14 29  1  0  0  0  0
 21 30  1  0  0  0  0
 21 35  1  0  0  0  0
 32 33  1  0  0  0  0
 32 36  1  0  0  0  0
 33 34  1  0  0  0  0
 33 37  1  0  0  0  0
 33 38  1  0  0  0  0
 34 35  1  0  0  0  0
 34 39  1  0  0  0  0
 34 40  1  0  0  0  0
 35 36  1  0  0  0  0
 35 41  1  1  0  0  0
 36 42  1  0  0  0  0
 36 43  1  0  0  0  0
M  END
$$$$
