18636-1
 OpenBabel02232411163D
Structure written by MMmdl.
 38 39  0  0  0  0  0  0  0  0999 V2000
   23.2320   10.8460   29.0470 C   0  0  0  0  0  0  0  0  0  0  0  0
   23.5050   11.0640   30.5190 C   0  0  0  0  0  0  0  0  0  0  0  0
   22.2370   11.1300   31.2790 O   0  0  0  0  0  0  0  0  0  0  0  0
   21.5930    9.9890   31.6040 C   0  0  0  0  0  0  0  0  0  0  0  0
   22.0710    8.8020   31.1650 N   0  0  0  0  0  0  0  0  0  0  0  0
   21.3420    7.6640   31.4700 C   0  0  0  0  0  0  0  0  0  0  0  0
   20.1800    7.6940   32.2330 C   0  0  0  0  0  0  0  0  0  0  0  0
   19.6930    8.9440   32.7070 C   0  0  0  0  0  0  0  0  0  0  0  0
   18.5360    8.9900   33.4430 N   0  0  0  0  0  0  0  0  0  0  0  0
   20.4100   10.1410   32.3870 C   0  0  0  0  0  0  0  0  0  0  0  0
   20.0050   11.4390   32.7670 C   0  0  0  0  0  0  0  0  0  0  0  0
   19.7270   12.5320   33.0380 N   0  0  0  0  0  0  0  0  0  0  0  0
   21.9280    6.5130   30.8860 N   0  0  0  0  0  0  0  0  0  0  0  0
   21.3740    5.2150   30.8210 C   0  0  0  0  0  0  0  0  0  0  0  0
   20.3520    4.9050   31.3930 O   0  0  0  0  0  0  0  0  0  0  0  0
   22.1690    4.2660   29.9270 C   0  0  0  0  0  0  0  0  0  0  0  0
   23.4020    3.7500   30.6080 C   0  0  0  0  0  0  0  0  0  0  0  0
   24.6840    4.2780   30.3830 C   0  0  0  0  0  0  0  0  0  0  0  0
   25.0070    5.5880   29.0260 Br  0  0  0  0  0  0  0  0  0  0  0  0
   25.7970    3.8310   31.1030 C   0  0  0  0  0  0  0  0  0  0  0  0
   25.6530    2.8090   32.0440 C   0  0  0  0  0  0  0  0  0  0  0  0
   24.3930    2.2340   32.2230 C   0  0  0  0  0  0  0  0  0  0  0  0
   24.1970    0.7840   33.4480 Br  0  0  0  0  0  0  0  0  0  0  0  0
   23.2770    2.6860   31.5200 C   0  0  0  0  0  0  0  0  0  0  0  0
   24.1770   11.0020   28.4700 H   0  0  0  0  0  0  0  0  0  0  0  0
   22.4730   11.5650   28.6640 H   0  0  0  0  0  0  0  0  0  0  0  0
   22.8740    9.8080   28.8480 H   0  0  0  0  0  0  0  0  0  0  0  0
   23.8890   12.0910   30.7310 H   0  0  0  0  0  0  0  0  0  0  0  0
   24.1570   10.2720   30.9520 H   0  0  0  0  0  0  0  0  0  0  0  0
   19.6260    6.7810   32.4580 H   0  0  0  0  0  0  0  0  0  0  0  0
   18.0350    8.1250   33.7170 H   0  0  0  0  0  0  0  0  0  0  0  0
   18.1460    9.8790   33.7590 H   0  0  0  0  0  0  0  0  0  0  0  0
   22.8170    6.6990   30.3720 H   0  0  0  0  0  0  0  0  0  0  0  0
   21.5010    3.4060   29.6540 H   0  0  0  0  0  0  0  0  0  0  0  0
   22.4280    4.8000   28.9720 H   0  0  0  0  0  0  0  0  0  0  0  0
   26.7900    4.2710   30.9310 H   0  0  0  0  0  0  0  0  0  0  0  0
   26.5270    2.4640   32.6130 H   0  0  0  0  0  0  0  0  0  0  0  0
   22.3040    2.2030   31.6700 H   0  0  0  0  0  0  0  0  0  0  0  0
  1  2  1  0  0  0  0
  1 25  1  0  0  0  0
  1 26  1  0  0  0  0
  1 27  1  0  0  0  0
  2  3  1  0  0  0  0
  2 28  1  0  0  0  0
  2 29  1  0  0  0  0
  3  4  1  0  0  0  0
  4 10  2  0  0  0  0
  4  5  1  0  0  0  0
  5  6  2  0  0  0  0
  6  7  1  0  0  0  0
  6 13  1  0  0  0  0
  7  8  2  0  0  0  0
  7 30  1  0  0  0  0
  8  9  1  0  0  0  0
  8 10  1  0  0  0  0
  9 31  1  0  0  0  0
  9 32  1  0  0  0  0
 10 11  1  0  0  0  0
 11 12  3  0  0  0  0
 13 14  1  0  0  0  0
 13 33  1  0  0  0  0
 14 15  2  0  0  0  0
 14 16  1  0  0  0  0
 16 17  1  0  0  0  0
 16 34  1  0  0  0  0
 16 35  1  0  0  0  0
 17 24  2  0  0  0  0
 17 18  1  0  0  0  0
 18 19  1  0  0  0  0
 18 20  2  0  0  0  0
 20 21  1  0  0  0  0
 20 36  1  0  0  0  0
 21 22  2  0  0  0  0
 21 37  1  0  0  0  0
 22 23  1  0  0  0  0
 22 24  1  0  0  0  0
 24 38  1  0  0  0  0
M  END
$$$$
