jmc_27
 OpenBabel02232411173D
Structure written by MMmdl.
 36 38  0  0  1  0  0  0  0  0999 V2000
   -1.5680   21.5380  -27.5960 C   0  0  0  0  0  0  0  0  0  0  0  0
   -2.8440   21.0280  -27.8510 C   0  0  0  0  0  0  0  0  0  0  0  0
   -3.6220   21.5930  -28.8620 C   0  0  0  0  0  0  0  0  0  0  0  0
   -3.1590   22.6720  -29.6320 C   0  0  0  0  0  0  0  0  0  0  0  0
   -1.8840   23.1730  -29.3400 C   0  0  0  0  0  0  0  0  0  0  0  0
   -1.0840   22.6170  -28.3390 C   0  0  0  0  0  0  0  0  0  0  0  0
   -1.2590   24.5110  -30.2100 Cl  0  0  0  0  0  0  0  0  0  0  0  0
   -4.0180   23.1810  -30.7520 C   0  0  0  0  0  0  0  0  0  0  0  0
   -4.4150   22.4620  -31.6430 O   0  0  0  0  0  0  0  0  0  0  0  0
   -4.3380   24.5520  -30.6490 N   0  0  0  0  0  0  0  0  0  0  0  0
   -5.1860   25.2910  -31.5210 C   0  0  0  0  0  0  0  0  0  0  0  0
   -5.8540   24.7220  -32.6180 C   0  0  0  0  0  0  0  0  0  0  0  0
   -6.7060   25.5360  -33.3760 C   0  0  0  0  0  0  0  0  0  0  0  0
   -6.9070   26.8540  -33.1200 N   0  0  0  0  0  0  0  0  0  0  0  0
   -6.2350   27.4000  -32.0470 C   0  0  0  0  0  0  0  0  0  0  0  0
   -5.3690   26.6600  -31.2290 C   0  0  0  0  0  0  0  0  0  0  0  0
   -6.5310   28.7730  -31.7980 N   0  0  0  0  0  0  0  0  0  0  0  0
   -5.6740   29.6960  -31.1500 C   0  0  0  0  0  0  0  0  0  0  0  0
   -4.5520   29.3890  -30.8020 O   0  0  0  0  0  0  0  0  0  0  0  0
   -6.2960   31.0390  -30.9220 C   0  0  1  0  0  0  0  0  0  0  0  0
   -5.7600   31.9130  -29.7860 C   0  0  0  0  0  0  0  0  0  0  0  0
   -5.5430   32.3340  -31.2150 C   0  0  1  0  0  0  0  0  0  0  0  0
   -3.9450   32.2480  -31.8910 Cl  0  0  0  0  0  0  0  0  0  0  0  0
   -5.1780   20.9470  -29.1780 Cl  0  0  0  0  0  0  0  0  0  0  0  0
   -7.3820   31.0870  -31.1180 H   0  0  0  0  0  0  0  0  0  0  0  0
   -6.1200   33.1810  -31.6260 H   0  0  0  0  0  0  0  0  0  0  0  0
   -0.9470   21.0950  -26.8100 H   0  0  0  0  0  0  0  0  0  0  0  0
   -3.2160   20.1980  -27.2480 H   0  0  0  0  0  0  0  0  0  0  0  0
   -0.0900   23.0190  -28.1210 H   0  0  0  0  0  0  0  0  0  0  0  0
   -3.9400   25.0790  -29.8500 H   0  0  0  0  0  0  0  0  0  0  0  0
   -5.7430   23.6660  -32.8780 H   0  0  0  0  0  0  0  0  0  0  0  0
   -7.2630   25.1170  -34.2320 H   0  0  0  0  0  0  0  0  0  0  0  0
   -4.8520   27.1320  -30.3900 H   0  0  0  0  0  0  0  0  0  0  0  0
   -7.4690   29.0990  -32.1220 H   0  0  0  0  0  0  0  0  0  0  0  0
   -6.4880   32.4800  -29.1830 H   0  0  0  0  0  0  0  0  0  0  0  0
   -4.9120   31.5570  -29.1820 H   0  0  0  0  0  0  0  0  0  0  0  0
  1  2  2  0  0  0  0
  1  6  1  0  0  0  0
  1 27  1  0  0  0  0
  2  3  1  0  0  0  0
  2 28  1  0  0  0  0
  3  4  2  0  0  0  0
  3 24  1  0  0  0  0
  4  5  1  0  0  0  0
  4  8  1  0  0  0  0
  5  6  2  0  0  0  0
  5  7  1  0  0  0  0
  6 29  1  0  0  0  0
  8  9  2  0  0  0  0
  8 10  1  0  0  0  0
 10 11  1  0  0  0  0
 10 30  1  0  0  0  0
 11 12  2  0  0  0  0
 11 16  1  0  0  0  0
 12 13  1  0  0  0  0
 12 31  1  0  0  0  0
 13 14  2  0  0  0  0
 13 32  1  0  0  0  0
 14 15  1  0  0  0  0
 15 16  2  0  0  0  0
 15 17  1  0  0  0  0
 16 33  1  0  0  0  0
 17 18  1  0  0  0  0
 17 34  1  0  0  0  0
 18 19  2  0  0  0  0
 18 20  1  0  0  0  0
 20 21  1  0  0  0  0
 20 22  1  0  0  0  0
 20 25  1  6  0  0  0
 21 22  1  0  0  0  0
 21 35  1  0  0  0  0
 21 36  1  0  0  0  0
 22 23  1  0  0  0  0
 22 26  1  6  0  0  0
M  END
$$$$
