18639-1
 OpenBabel02232411163D
Structure written by MMmdl.
 48 49  0  0  0  0  0  0  0  0999 V2000
   23.2190   10.7750   29.0660 C   0  0  0  0  0  0  0  0  0  0  0  0
   23.4940   11.0240   30.5350 C   0  0  0  0  0  0  0  0  0  0  0  0
   22.2280   11.1410   31.2890 O   0  0  0  0  0  0  0  0  0  0  0  0
   21.5640   10.0150   31.6350 C   0  0  0  0  0  0  0  0  0  0  0  0
   22.0300    8.8160   31.2170 N   0  0  0  0  0  0  0  0  0  0  0  0
   21.2830    7.6930   31.5310 C   0  0  0  0  0  0  0  0  0  0  0  0
   20.1160    7.7500   32.2840 C   0  0  0  0  0  0  0  0  0  0  0  0
   19.6470    9.0110   32.7430 C   0  0  0  0  0  0  0  0  0  0  0  0
   18.4930    9.0720   33.4800 N   0  0  0  0  0  0  0  0  0  0  0  0
   20.3800   10.1960   32.4100 C   0  0  0  0  0  0  0  0  0  0  0  0
   19.9860   11.5030   32.7680 C   0  0  0  0  0  0  0  0  0  0  0  0
   19.7130   12.6010   33.0230 N   0  0  0  0  0  0  0  0  0  0  0  0
   21.8600    6.5240   30.9820 N   0  0  0  0  0  0  0  0  0  0  0  0
   21.2550    5.2550   30.8780 C   0  0  0  0  0  0  0  0  0  0  0  0
   20.1570    5.0100   31.3290 O   0  0  0  0  0  0  0  0  0  0  0  0
   22.0810    4.2550   30.0770 C   0  0  0  0  0  0  0  0  0  0  0  0
   23.4520    3.9920   30.6290 C   0  0  0  0  0  0  0  0  0  0  0  0
   24.5440    4.8570   30.3040 C   0  0  0  0  0  0  0  0  0  0  0  0
   24.1800    5.9000   29.4620 O   0  0  0  0  0  0  0  0  0  0  0  0
   25.1260    6.9940   29.3000 C   0  0  0  0  0  0  0  0  0  0  0  0
   25.8260    4.6220   30.7760 C   0  0  0  0  0  0  0  0  0  0  0  0
   26.0640    3.5110   31.6120 C   0  0  0  0  0  0  0  0  0  0  0  0
   27.4190    3.2630   32.1120 N   0  3  0  0  0  0  0  0  0  0  0  0
   27.5580    2.4780   33.0370 O   0  5  0  0  0  0  0  0  0  0  0  0
   28.3550    3.8470   31.5790 O   0  0  0  0  0  0  0  0  0  0  0  0
   24.9960    2.6430   31.9390 C   0  0  0  0  0  0  0  0  0  0  0  0
   23.6990    2.8900   31.4320 C   0  0  0  0  0  0  0  0  0  0  0  0
   25.3510    1.6090   32.7530 O   0  0  0  0  0  0  0  0  0  0  0  0
   24.3570    0.5710   33.0030 C   0  0  0  0  0  0  0  0  0  0  0  0
   24.1810   10.8250   28.4990 H   0  0  0  0  0  0  0  0  0  0  0  0
   22.5290   11.5420   28.6470 H   0  0  0  0  0  0  0  0  0  0  0  0
   22.7720    9.7660   28.9050 H   0  0  0  0  0  0  0  0  0  0  0  0
   23.9080   12.0440   30.7200 H   0  0  0  0  0  0  0  0  0  0  0  0
   24.1240   10.2240   30.9860 H   0  0  0  0  0  0  0  0  0  0  0  0
   19.5450    6.8470   32.5090 H   0  0  0  0  0  0  0  0  0  0  0  0
   17.9870    8.2060   33.7500 H   0  0  0  0  0  0  0  0  0  0  0  0
   18.1040    9.9630   33.7880 H   0  0  0  0  0  0  0  0  0  0  0  0
   22.7830    6.6700   30.5010 H   0  0  0  0  0  0  0  0  0  0  0  0
   21.5110    3.2900   30.0210 H   0  0  0  0  0  0  0  0  0  0  0  0
   22.1860    4.6680   29.0330 H   0  0  0  0  0  0  0  0  0  0  0  0
   25.4410    7.3900   30.2890 H   0  0  0  0  0  0  0  0  0  0  0  0
   25.9840    6.6450   28.6860 H   0  0  0  0  0  0  0  0  0  0  0  0
   24.5040    7.7380   28.7500 H   0  0  0  0  0  0  0  0  0  0  0  0
   26.6620    5.2770   30.5030 H   0  0  0  0  0  0  0  0  0  0  0  0
   22.8860    2.2000   31.6720 H   0  0  0  0  0  0  0  0  0  0  0  0
   24.9470   -0.1580   33.6090 H   0  0  0  0  0  0  0  0  0  0  0  0
   23.5110    0.9850   33.5910 H   0  0  0  0  0  0  0  0  0  0  0  0
   24.0280    0.1170   32.0430 H   0  0  0  0  0  0  0  0  0  0  0  0
  1  2  1  0  0  0  0
  1 30  1  0  0  0  0
  1 31  1  0  0  0  0
  1 32  1  0  0  0  0
  2  3  1  0  0  0  0
  2 33  1  0  0  0  0
  2 34  1  0  0  0  0
  3  4  1  0  0  0  0
  4 10  2  0  0  0  0
  4  5  1  0  0  0  0
  5  6  2  0  0  0  0
  6  7  1  0  0  0  0
  6 13  1  0  0  0  0
  7  8  2  0  0  0  0
  7 35  1  0  0  0  0
  8  9  1  0  0  0  0
  8 10  1  0  0  0  0
  9 36  1  0  0  0  0
  9 37  1  0  0  0  0
 10 11  1  0  0  0  0
 11 12  3  0  0  0  0
 13 14  1  0  0  0  0
 13 38  1  0  0  0  0
 14 15  2  0  0  0  0
 14 16  1  0  0  0  0
 16 17  1  0  0  0  0
 16 39  1  0  0  0  0
 16 40  1  0  0  0  0
 17 27  2  0  0  0  0
 17 18  1  0  0  0  0
 18 19  1  0  0  0  0
 18 21  2  0  0  0  0
 19 20  1  0  0  0  0
 20 41  1  0  0  0  0
 20 42  1  0  0  0  0
 20 43  1  0  0  0  0
 21 22  1  0  0  0  0
 21 44  1  0  0  0  0
 22 23  1  0  0  0  0
 22 26  2  0  0  0  0
 23 24  1  0  0  0  0
 23 25  2  0  0  0  0
 26 27  1  0  0  0  0
 26 28  1  0  0  0  0
 27 45  1  0  0  0  0
 28 29  1  0  0  0  0
 29 46  1  0  0  0  0
 29 47  1  0  0  0  0
 29 48  1  0  0  0  0
M  CHG  2  23   1  24  -1
M  END
$$$$
