p38a_2aa
 OpenBabel02232411163D
Structure written by MMmdl.
 43 45  0  0  0  0  0  0  0  0999 V2000
   36.3740   36.0810   15.7680 C   0  0  0  0  0  0  0  0  0  0  0  0
   34.4990   34.9740   21.1980 C   0  0  0  0  0  0  0  0  0  0  0  0
   35.7630   35.5840   16.9140 C   0  0  0  0  0  0  0  0  0  0  0  0
   33.7640   39.0250   23.7370 C   0  0  0  0  0  0  0  0  0  0  0  0
   32.6290   38.9330   25.9630 C   0  0  0  0  0  0  0  0  0  0  0  0
   34.7210   37.8360   21.4420 C   0  0  0  0  0  0  0  0  0  0  0  0
   35.2890   37.1800   20.2940 C   0  0  0  0  0  0  0  0  0  0  0  0
   37.6630   36.6070   15.9260 C   0  0  0  0  0  0  0  0  0  0  0  0
   38.3440   36.6230   17.1460 C   0  0  0  0  0  0  0  0  0  0  0  0
   37.6920   36.1530   18.2920 C   0  0  0  0  0  0  0  0  0  0  0  0
   34.1350   37.0660   22.4890 C   0  0  0  0  0  0  0  0  0  0  0  0
   34.7270   39.2470   21.6110 C   0  0  0  0  0  0  0  0  0  0  0  0
   35.2080   35.8330   20.2090 C   0  0  0  0  0  0  0  0  0  0  0  0
   36.4020   35.6320   18.1700 C   0  0  0  0  0  0  0  0  0  0  0  0
   33.3950   34.8930   23.4650 C   0  0  0  0  0  0  0  0  0  0  0  0
   34.5570   35.0360   16.8510 F   0  0  0  0  0  0  0  0  0  0  0  0
   35.7290   34.9980   19.2230 O   0  0  0  0  0  0  0  0  0  0  0  0
   34.2630   39.8540   22.7150 N   0  0  0  0  0  0  0  0  0  0  0  0
   34.3060   33.7840   21.0790 O   0  0  0  0  0  0  0  0  0  0  0  0
   34.0270   35.6710   22.3630 N   0  0  0  0  0  0  0  0  0  0  0  0
   33.6560   37.6550   23.6340 N   0  0  0  0  0  0  0  0  0  0  0  0
   33.4620   39.6340   24.9480 N   0  0  0  0  0  0  0  0  0  0  0  0
   35.8700   36.0820   14.7990 H   0  0  0  0  0  0  0  0  0  0  0  0
   32.5460   39.8570   27.2080 C   0  0  0  0  0  0  0  0  0  0  0  0
   35.7790   37.7980   19.5380 H   0  0  0  0  0  0  0  0  0  0  0  0
   39.3580   37.0230   17.2190 H   0  0  0  0  0  0  0  0  0  0  0  0
   38.1900   36.2180   19.2630 H   0  0  0  0  0  0  0  0  0  0  0  0
   35.1170   39.8920   20.8060 H   0  0  0  0  0  0  0  0  0  0  0  0
   33.9220   35.1060   24.4360 H   0  0  0  0  0  0  0  0  0  0  0  0
   32.3170   35.1860   23.5770 H   0  0  0  0  0  0  0  0  0  0  0  0
   33.4590   33.7940   23.2530 H   0  0  0  0  0  0  0  0  0  0  0  0
   33.3590   40.6690   24.9570 H   0  0  0  0  0  0  0  0  0  0  0  0
   38.2500   37.1480   14.8610 F   0  0  0  0  0  0  0  0  0  0  0  0
   31.2090   38.5590   25.4560 C   0  0  0  0  0  0  0  0  0  0  0  0
   30.7330   39.5030   24.4950 O   0  0  0  0  0  0  0  0  0  0  0  0
   30.2290   40.2300   24.9570 H   0  0  0  0  0  0  0  0  0  0  0  0
   31.2430   37.6000   24.8860 H   0  0  0  0  0  0  0  0  0  0  0  0
   30.5090   38.5040   26.3220 H   0  0  0  0  0  0  0  0  0  0  0  0
   31.6450   39.2880   28.1660 O   0  0  0  0  0  0  0  0  0  0  0  0
   33.5500   40.0080   27.6660 H   0  0  0  0  0  0  0  0  0  0  0  0
   32.0630   40.8290   26.9600 H   0  0  0  0  0  0  0  0  0  0  0  0
   32.0620   38.4890   28.5820 H   0  0  0  0  0  0  0  0  0  0  0  0
   33.1560   37.9790   26.2580 H   0  0  0  0  0  0  0  0  0  0  0  0
  1  3  2  0  0  0  0
  1  8  1  0  0  0  0
  1 23  1  0  0  0  0
  2 13  1  0  0  0  0
  2 19  2  0  0  0  0
  2 20  1  0  0  0  0
  3 14  1  0  0  0  0
  3 16  1  0  0  0  0
  4 18  2  0  0  0  0
  4 21  1  0  0  0  0
  4 22  1  0  0  0  0
  5 22  1  0  0  0  0
  5 24  1  0  0  0  0
  5 34  1  0  0  0  0
  5 43  1  0  0  0  0
  6  7  1  0  0  0  0
  6 11  1  0  0  0  0
  6 12  2  0  0  0  0
  7 13  2  0  0  0  0
  7 25  1  0  0  0  0
  8  9  2  0  0  0  0
  8 33  1  0  0  0  0
  9 10  1  0  0  0  0
  9 26  1  0  0  0  0
 10 14  2  0  0  0  0
 10 27  1  0  0  0  0
 11 20  1  0  0  0  0
 11 21  2  0  0  0  0
 12 18  1  0  0  0  0
 12 28  1  0  0  0  0
 13 17  1  0  0  0  0
 14 17  1  0  0  0  0
 15 20  1  0  0  0  0
 15 29  1  0  0  0  0
 15 30  1  0  0  0  0
 15 31  1  0  0  0  0
 22 32  1  0  0  0  0
 24 39  1  0  0  0  0
 24 40  1  0  0  0  0
 24 41  1  0  0  0  0
 34 35  1  0  0  0  0
 34 37  1  0  0  0  0
 34 38  1  0  0  0  0
 35 36  1  0  0  0  0
 39 42  1  0  0  0  0
M  END
$$$$
