23
 OpenBabel02232411163D
Structure written by MMmdl.
 43 46  0  0  0  0  0  0  0  0999 V2000
    3.7340  -49.7880    5.9160 O   0  0  0  0  0  0  0  0  0  0  0  0
    2.9670  -48.9580    6.4410 C   0  0  0  0  0  0  0  0  0  0  0  0
    3.2850  -47.9350    7.0610 O   0  5  0  0  0  0  0  0  0  0  0  0
    1.4840  -49.3370    6.3500 C   0  0  0  0  0  0  0  0  0  0  0  0
    1.1490  -50.9950    6.8350 S   0  0  0  0  0  0  0  0  0  0  0  0
   -0.5640  -50.8320    6.5540 C   0  0  0  0  0  0  0  0  0  0  0  0
   -1.5500  -51.7950    6.7460 C   0  0  0  0  0  0  0  0  0  0  0  0
   -2.8680  -51.4540    6.4420 C   0  0  0  0  0  0  0  0  0  0  0  0
   -3.1760  -50.1720    5.9530 C   0  0  0  0  0  0  0  0  0  0  0  0
   -2.1840  -49.2110    5.7670 C   0  0  0  0  0  0  0  0  0  0  0  0
   -0.8490  -49.5290    6.0700 C   0  0  0  0  0  0  0  0  0  0  0  0
    0.3540  -48.6860    5.9750 C   0  0  0  0  0  0  0  0  0  0  0  0
    0.2610  -47.2720    5.4930 C   0  0  0  0  0  0  0  0  0  0  0  0
    0.2310  -46.2410    6.6330 C   0  0  0  0  0  0  0  0  0  0  0  0
   -0.9350  -46.3940    7.6010 C   0  0  0  0  0  0  0  0  0  0  0  0
   -2.1080  -45.8280    6.9020 O   0  0  0  0  0  0  0  0  0  0  0  0
   -3.2940  -45.8200    7.5750 C   0  0  0  0  0  0  0  0  0  0  0  0
   -5.8300  -45.5770    8.7650 C   0  0  0  0  0  0  0  0  0  0  0  0
   -4.8470  -46.3320    9.3550 C   0  0  0  0  0  0  0  0  0  0  0  0
   -3.5590  -46.4590    8.7720 C   0  0  0  0  0  0  0  0  0  0  0  0
   -1.3210  -52.7930    7.1270 H   0  0  0  0  0  0  0  0  0  0  0  0
   -3.6670  -52.1820    6.5830 H   0  0  0  0  0  0  0  0  0  0  0  0
   -4.2150  -49.9340    5.7190 H   0  0  0  0  0  0  0  0  0  0  0  0
   -2.4660  -48.2260    5.3940 H   0  0  0  0  0  0  0  0  0  0  0  0
   -0.6690  -47.1490    4.8800 H   0  0  0  0  0  0  0  0  0  0  0  0
    1.1380  -47.0330    4.8400 H   0  0  0  0  0  0  0  0  0  0  0  0
    0.1820  -45.2180    6.1900 H   0  0  0  0  0  0  0  0  0  0  0  0
    1.1730  -46.3360    7.2330 H   0  0  0  0  0  0  0  0  0  0  0  0
   -0.7970  -45.7620    8.5060 H   0  0  0  0  0  0  0  0  0  0  0  0
   -1.1740  -47.4540    7.8250 H   0  0  0  0  0  0  0  0  0  0  0  0
   -2.8310  -47.0720    9.2920 H   0  0  0  0  0  0  0  0  0  0  0  0
   -5.5900  -44.9370    7.5100 C   0  0  0  0  0  0  0  0  0  0  0  0
   -4.3150  -45.0530    6.8960 C   0  0  0  0  0  0  0  0  0  0  0  0
   -4.0900  -44.4570    5.6220 C   0  0  0  0  0  0  0  0  0  0  0  0
   -5.0910  -43.7560    4.9920 C   0  0  0  0  0  0  0  0  0  0  0  0
   -6.3700  -43.6430    5.6000 C   0  0  0  0  0  0  0  0  0  0  0  0
   -6.6160  -44.2150    6.8260 C   0  0  0  0  0  0  0  0  0  0  0  0
   -3.1200  -44.5920    5.1430 H   0  0  0  0  0  0  0  0  0  0  0  0
   -4.9210  -43.2900    4.0240 H   0  0  0  0  0  0  0  0  0  0  0  0
   -7.1530  -43.1020    5.0750 H   0  0  0  0  0  0  0  0  0  0  0  0
   -7.6010  -44.1400    7.2860 H   0  0  0  0  0  0  0  0  0  0  0  0
   -5.0490  -46.8590   10.2900 H   0  0  0  0  0  0  0  0  0  0  0  0
   -6.8110  -45.4760    9.2280 H   0  0  0  0  0  0  0  0  0  0  0  0
  1  2  2  0  0  0  0
  2  3  1  0  0  0  0
  2  4  1  0  0  0  0
  4  5  1  0  0  0  0
  4 12  2  0  0  0  0
  5  6  1  0  0  0  0
  6  7  2  0  0  0  0
  6 11  1  0  0  0  0
  7  8  1  0  0  0  0
  7 21  1  0  0  0  0
  8  9  2  0  0  0  0
  8 22  1  0  0  0  0
  9 10  1  0  0  0  0
  9 23  1  0  0  0  0
 10 11  2  0  0  0  0
 10 24  1  0  0  0  0
 11 12  1  0  0  0  0
 12 13  1  0  0  0  0
 13 25  1  0  0  0  0
 13 26  1  0  0  0  0
 13 14  1  0  0  0  0
 14 15  1  0  0  0  0
 14 27  1  0  0  0  0
 14 28  1  0  0  0  0
 15 16  1  0  0  0  0
 15 29  1  0  0  0  0
 15 30  1  0  0  0  0
 16 17  1  0  0  0  0
 17 20  2  0  0  0  0
 17 33  1  0  0  0  0
 18 19  2  0  0  0  0
 18 32  1  0  0  0  0
 18 43  1  0  0  0  0
 19 20  1  0  0  0  0
 19 42  1  0  0  0  0
 20 31  1  0  0  0  0
 32 33  2  0  0  0  0
 32 37  1  0  0  0  0
 33 34  1  0  0  0  0
 34 35  2  0  0  0  0
 34 38  1  0  0  0  0
 35 36  1  0  0  0  0
 35 39  1  0  0  0  0
 36 37  2  0  0  0  0
 36 40  1  0  0  0  0
 37 41  1  0  0  0  0
M  CHG  1   3  -1
M  END
$$$$
