18658-1
 OpenBabel02232411163D
Structure written by MMmdl.
 47 48  0  0  0  0  0  0  0  0999 V2000
   23.0990   12.2900   28.7580 O   0  0  0  0  0  0  0  0  0  0  0  0
   23.4510   10.9630   29.2160 C   0  0  0  0  0  0  0  0  0  0  0  0
   23.5730   11.0540   30.7330 C   0  0  0  0  0  0  0  0  0  0  0  0
   22.2540   11.1620   31.3710 O   0  0  0  0  0  0  0  0  0  0  0  0
   21.5660   10.0300   31.6550 C   0  0  0  0  0  0  0  0  0  0  0  0
   22.0170    8.8440   31.1900 N   0  0  0  0  0  0  0  0  0  0  0  0
   21.2560    7.7170   31.4720 C   0  0  0  0  0  0  0  0  0  0  0  0
   20.0950    7.7680   32.2380 C   0  0  0  0  0  0  0  0  0  0  0  0
   19.6360    9.0190   32.7270 C   0  0  0  0  0  0  0  0  0  0  0  0
   18.4880    9.0710   33.4760 N   0  0  0  0  0  0  0  0  0  0  0  0
   20.3730   10.2070   32.4150 C   0  0  0  0  0  0  0  0  0  0  0  0
   19.9750   11.5120   32.7750 C   0  0  0  0  0  0  0  0  0  0  0  0
   19.7000   12.6120   33.0220 N   0  0  0  0  0  0  0  0  0  0  0  0
   21.8010    6.5590   30.8790 N   0  0  0  0  0  0  0  0  0  0  0  0
   21.1870    5.2890   30.7840 C   0  0  0  0  0  0  0  0  0  0  0  0
   20.1090    5.0440   31.2830 O   0  0  0  0  0  0  0  0  0  0  0  0
   21.9760    4.3020   29.9360 C   0  0  0  0  0  0  0  0  0  0  0  0
   23.3030    3.9450   30.5390 C   0  0  0  0  0  0  0  0  0  0  0  0
   24.4380    4.7610   30.3140 C   0  0  0  0  0  0  0  0  0  0  0  0
   24.1780    5.8420   29.4760 O   0  0  0  0  0  0  0  0  0  0  0  0
   25.2020    6.8650   29.3610 C   0  0  0  0  0  0  0  0  0  0  0  0
   25.6840    4.4620   30.8780 C   0  0  0  0  0  0  0  0  0  0  0  0
   25.8200    3.3290   31.6750 C   0  0  0  0  0  0  0  0  0  0  0  0
   24.7000    2.5010   31.8860 C   0  0  0  0  0  0  0  0  0  0  0  0
   23.4500    2.7970   31.3220 C   0  0  0  0  0  0  0  0  0  0  0  0
   24.9770    1.4240   32.7030 O   0  0  0  0  0  0  0  0  0  0  0  0
   23.9710    0.3850   32.8160 C   0  0  0  0  0  0  0  0  0  0  0  0
   22.9440   12.2200   27.7580 H   0  0  0  0  0  0  0  0  0  0  0  0
   22.6580   10.2460   28.8990 H   0  0  0  0  0  0  0  0  0  0  0  0
   24.4410   10.6870   28.7710 H   0  0  0  0  0  0  0  0  0  0  0  0
   24.0190   12.0300   31.0480 H   0  0  0  0  0  0  0  0  0  0  0  0
   24.1360   10.1810   31.1420 H   0  0  0  0  0  0  0  0  0  0  0  0
   19.5210    6.8640   32.4510 H   0  0  0  0  0  0  0  0  0  0  0  0
   17.9830    8.2030   33.7410 H   0  0  0  0  0  0  0  0  0  0  0  0
   18.1040    9.9580   33.8010 H   0  0  0  0  0  0  0  0  0  0  0  0
   22.7290    6.6950   30.4040 H   0  0  0  0  0  0  0  0  0  0  0  0
   21.3610    3.3770   29.7970 H   0  0  0  0  0  0  0  0  0  0  0  0
   22.1470    4.7730   28.9290 H   0  0  0  0  0  0  0  0  0  0  0  0
   26.0810    6.4520   28.8230 H   0  0  0  0  0  0  0  0  0  0  0  0
   24.6790    7.6370   28.7520 H   0  0  0  0  0  0  0  0  0  0  0  0
   25.4740    7.2600   30.3640 H   0  0  0  0  0  0  0  0  0  0  0  0
   26.5560    5.0960   30.6990 H   0  0  0  0  0  0  0  0  0  0  0  0
   26.7870    3.0850   32.1230 H   0  0  0  0  0  0  0  0  0  0  0  0
   22.5950    2.1410   31.4890 H   0  0  0  0  0  0  0  0  0  0  0  0
   24.4960   -0.3660   33.4530 H   0  0  0  0  0  0  0  0  0  0  0  0
   23.0660    0.7790   33.3260 H   0  0  0  0  0  0  0  0  0  0  0  0
   23.7420   -0.0340   31.8120 H   0  0  0  0  0  0  0  0  0  0  0  0
  1  2  1  0  0  0  0
  1 28  1  0  0  0  0
  2  3  1  0  0  0  0
  2 29  1  0  0  0  0
  2 30  1  0  0  0  0
  3  4  1  0  0  0  0
  3 31  1  0  0  0  0
  3 32  1  0  0  0  0
  4  5  1  0  0  0  0
  5 11  2  0  0  0  0
  5  6  1  0  0  0  0
  6  7  2  0  0  0  0
  7  8  1  0  0  0  0
  7 14  1  0  0  0  0
  8  9  2  0  0  0  0
  8 33  1  0  0  0  0
  9 10  1  0  0  0  0
  9 11  1  0  0  0  0
 10 34  1  0  0  0  0
 10 35  1  0  0  0  0
 11 12  1  0  0  0  0
 12 13  3  0  0  0  0
 14 15  1  0  0  0  0
 14 36  1  0  0  0  0
 15 16  2  0  0  0  0
 15 17  1  0  0  0  0
 17 18  1  0  0  0  0
 17 37  1  0  0  0  0
 17 38  1  0  0  0  0
 18 25  2  0  0  0  0
 18 19  1  0  0  0  0
 19 20  1  0  0  0  0
 19 22  2  0  0  0  0
 20 21  1  0  0  0  0
 21 39  1  0  0  0  0
 21 40  1  0  0  0  0
 21 41  1  0  0  0  0
 22 23  1  0  0  0  0
 22 42  1  0  0  0  0
 23 24  2  0  0  0  0
 23 43  1  0  0  0  0
 24 25  1  0  0  0  0
 24 26  1  0  0  0  0
 25 44  1  0  0  0  0
 26 27  1  0  0  0  0
 27 45  1  0  0  0  0
 27 46  1  0  0  0  0
 27 47  1  0  0  0  0
M  END
$$$$
