27
 OpenBabel02232411163D
Structure written by MMmdl.
 38 40  0  0  0  0  0  0  0  0999 V2000
    3.3650  -48.1750    7.1020 O   0  0  0  0  0  0  0  0  0  0  0  0
    2.9840  -49.1710    6.4720 C   0  0  0  0  0  0  0  0  0  0  0  0
    3.7040  -50.0110    5.8990 O   0  5  0  0  0  0  0  0  0  0  0  0
    1.4720  -49.4570    6.3860 C   0  0  0  0  0  0  0  0  0  0  0  0
   -0.3900  -50.7840    6.5330 C   0  0  0  0  0  0  0  0  0  0  0  0
   -1.3150  -51.8190    6.7520 C   0  0  0  0  0  0  0  0  0  0  0  0
   -2.6440  -51.5630    6.4500 C   0  0  0  0  0  0  0  0  0  0  0  0
   -3.0530  -50.3090    5.9370 C   0  0  0  0  0  0  0  0  0  0  0  0
   -2.1450  -49.2820    5.7220 C   0  0  0  0  0  0  0  0  0  0  0  0
   -0.7900  -49.4940    6.0250 C   0  0  0  0  0  0  0  0  0  0  0  0
    0.4030  -48.6770    5.9580 C   0  0  0  0  0  0  0  0  0  0  0  0
    0.4030  -47.2590    5.5100 C   0  0  0  0  0  0  0  0  0  0  0  0
    0.2840  -46.2580    6.6740 C   0  0  0  0  0  0  0  0  0  0  0  0
   -1.0520  -46.3140    7.4120 C   0  0  0  0  0  0  0  0  0  0  0  0
   -2.0120  -45.7370    6.4520 O   0  0  0  0  0  0  0  0  0  0  0  0
   -3.2680  -45.4320    6.8870 C   0  0  0  0  0  0  0  0  0  0  0  0
   -3.8350  -45.8520    8.1030 C   0  0  0  0  0  0  0  0  0  0  0  0
   -5.1380  -45.4500    8.4080 C   0  0  0  0  0  0  0  0  0  0  0  0
   -5.8670  -44.6470    7.5290 C   0  0  0  0  0  0  0  0  0  0  0  0
   -5.2940  -44.2470    6.3120 C   0  0  0  0  0  0  0  0  0  0  0  0
   -4.0010  -44.6320    5.9780 C   0  0  0  0  0  0  0  0  0  0  0  0
   -1.0080  -52.7870    7.1470 H   0  0  0  0  0  0  0  0  0  0  0  0
   -3.3980  -52.3350    6.6110 H   0  0  0  0  0  0  0  0  0  0  0  0
   -4.1090  -50.1570    5.7120 H   0  0  0  0  0  0  0  0  0  0  0  0
   -2.4880  -48.3240    5.3260 H   0  0  0  0  0  0  0  0  0  0  0  0
   -0.4710  -47.0970    4.8270 H   0  0  0  0  0  0  0  0  0  0  0  0
    1.3400  -47.0250    4.9480 H   0  0  0  0  0  0  0  0  0  0  0  0
    0.4050  -45.2240    6.2710 H   0  0  0  0  0  0  0  0  0  0  0  0
    1.0910  -46.4600    7.4200 H   0  0  0  0  0  0  0  0  0  0  0  0
   -1.0510  -45.6590    8.3100 H   0  0  0  0  0  0  0  0  0  0  0  0
   -1.3940  -47.3470    7.6270 H   0  0  0  0  0  0  0  0  0  0  0  0
   -3.3020  -46.4930    8.8010 H   0  0  0  0  0  0  0  0  0  0  0  0
   -3.5570  -44.3300    5.0330 H   0  0  0  0  0  0  0  0  0  0  0  0
    0.9970  -50.7350    6.7460 N   0  0  0  0  0  0  0  0  0  0  0  0
    1.5390  -51.5220    7.0820 H   0  0  0  0  0  0  0  0  0  0  0  0
   -5.8740  -43.6290    5.6230 H   0  0  0  0  0  0  0  0  0  0  0  0
   -6.8810  -44.3410    7.7780 H   0  0  0  0  0  0  0  0  0  0  0  0
   -5.5970  -45.7710    9.3470 H   0  0  0  0  0  0  0  0  0  0  0  0
  1  2  2  0  0  0  0
  2  3  1  0  0  0  0
  2  4  1  0  0  0  0
  4 11  2  0  0  0  0
  4 34  1  0  0  0  0
  5  6  2  0  0  0  0
  5 10  1  0  0  0  0
  5 34  1  0  0  0  0
  6  7  1  0  0  0  0
  6 22  1  0  0  0  0
  7  8  2  0  0  0  0
  7 23  1  0  0  0  0
  8  9  1  0  0  0  0
  8 24  1  0  0  0  0
  9 10  2  0  0  0  0
  9 25  1  0  0  0  0
 10 11  1  0  0  0  0
 11 12  1  0  0  0  0
 12 26  1  0  0  0  0
 12 27  1  0  0  0  0
 12 13  1  0  0  0  0
 13 14  1  0  0  0  0
 13 28  1  0  0  0  0
 13 29  1  0  0  0  0
 14 15  1  0  0  0  0
 14 30  1  0  0  0  0
 14 31  1  0  0  0  0
 15 16  1  0  0  0  0
 16 17  2  0  0  0  0
 16 21  1  0  0  0  0
 17 18  1  0  0  0  0
 17 32  1  0  0  0  0
 18 19  2  0  0  0  0
 18 38  1  0  0  0  0
 19 20  1  0  0  0  0
 19 37  1  0  0  0  0
 20 21  2  0  0  0  0
 20 36  1  0  0  0  0
 21 33  1  0  0  0  0
 34 35  1  0  0  0  0
M  CHG  1   3  -1
M  END
$$$$
