18639-1
 OpenBabel02232411163D
Structure written by MMmdl.
 48 49  0  0  0  0  0  0  0  0999 V2000
   24.4240   10.9550   30.7510 C   0  0  0  0  0  0  0  0  0  0  0  0
   23.0950   11.2900   30.1070 C   0  0  0  0  0  0  0  0  0  0  0  0
   22.0180   11.3480   31.1180 O   0  0  0  0  0  0  0  0  0  0  0  0
   21.4390   10.1970   31.5310 C   0  0  0  0  0  0  0  0  0  0  0  0
   21.9240    9.0080   31.1030 N   0  0  0  0  0  0  0  0  0  0  0  0
   21.2340    7.8640   31.4740 C   0  0  0  0  0  0  0  0  0  0  0  0
   20.0970    7.8960   32.2730 C   0  0  0  0  0  0  0  0  0  0  0  0
   19.6030    9.1480   32.7310 C   0  0  0  0  0  0  0  0  0  0  0  0
   18.4690    9.1840   33.5010 N   0  0  0  0  0  0  0  0  0  0  0  0
   20.2890   10.3490   32.3630 C   0  0  0  0  0  0  0  0  0  0  0  0
   19.8750   11.6470   32.7290 C   0  0  0  0  0  0  0  0  0  0  0  0
   19.5870   12.7400   32.9890 N   0  0  0  0  0  0  0  0  0  0  0  0
   21.8270    6.7010   30.9310 N   0  0  0  0  0  0  0  0  0  0  0  0
   21.2700    5.4060   30.8880 C   0  0  0  0  0  0  0  0  0  0  0  0
   20.1990    5.1280   31.3850 O   0  0  0  0  0  0  0  0  0  0  0  0
   22.1070    4.4150   30.0860 C   0  0  0  0  0  0  0  0  0  0  0  0
   23.4850    4.1780   30.6300 C   0  0  0  0  0  0  0  0  0  0  0  0
   24.5620    5.0600   30.2990 C   0  0  0  0  0  0  0  0  0  0  0  0
   24.1770    6.1060   29.4710 O   0  0  0  0  0  0  0  0  0  0  0  0
   25.1130    7.2070   29.2930 C   0  0  0  0  0  0  0  0  0  0  0  0
   25.8540    4.8350   30.7500 C   0  0  0  0  0  0  0  0  0  0  0  0
   26.1160    3.7220   31.5760 C   0  0  0  0  0  0  0  0  0  0  0  0
   27.4810    3.4870   32.0550 N   0  3  0  0  0  0  0  0  0  0  0  0
   27.6470    2.6750   32.9520 O   0  5  0  0  0  0  0  0  0  0  0  0
   28.3990    4.1080   31.5330 O   0  0  0  0  0  0  0  0  0  0  0  0
   25.0630    2.8400   31.9140 C   0  0  0  0  0  0  0  0  0  0  0  0
   23.7570    3.0750   31.4250 C   0  0  0  0  0  0  0  0  0  0  0  0
   25.4400    1.8040   32.7160 O   0  0  0  0  0  0  0  0  0  0  0  0
   24.4610    0.7530   32.9710 C   0  0  0  0  0  0  0  0  0  0  0  0
   25.2120   10.8960   29.9580 H   0  0  0  0  0  0  0  0  0  0  0  0
   24.7200   11.7320   31.4860 H   0  0  0  0  0  0  0  0  0  0  0  0
   24.3860    9.9640   31.2620 H   0  0  0  0  0  0  0  0  0  0  0  0
   23.0560   12.3430   29.7390 H   0  0  0  0  0  0  0  0  0  0  0  0
   22.8170   10.5620   29.3120 H   0  0  0  0  0  0  0  0  0  0  0  0
   19.5680    6.9780   32.5380 H   0  0  0  0  0  0  0  0  0  0  0  0
   17.9690    8.3090   33.7540 H   0  0  0  0  0  0  0  0  0  0  0  0
   18.0550   10.0680   33.7980 H   0  0  0  0  0  0  0  0  0  0  0  0
   22.7330    6.8610   30.4210 H   0  0  0  0  0  0  0  0  0  0  0  0
   21.5520    3.4400   30.0430 H   0  0  0  0  0  0  0  0  0  0  0  0
   22.1990    4.8150   29.0350 H   0  0  0  0  0  0  0  0  0  0  0  0
   25.4670    7.5860   30.2750 H   0  0  0  0  0  0  0  0  0  0  0  0
   25.9460    6.8690   28.6400 H   0  0  0  0  0  0  0  0  0  0  0  0
   24.4680    7.9590   28.7810 H   0  0  0  0  0  0  0  0  0  0  0  0
   26.6810    5.4960   30.4640 H   0  0  0  0  0  0  0  0  0  0  0  0
   22.9550    2.3740   31.6700 H   0  0  0  0  0  0  0  0  0  0  0  0
   25.0690    0.0260   33.5620 H   0  0  0  0  0  0  0  0  0  0  0  0
   23.6190    1.1520   33.5750 H   0  0  0  0  0  0  0  0  0  0  0  0
   24.1240    0.3030   32.0120 H   0  0  0  0  0  0  0  0  0  0  0  0
  1  2  1  0  0  0  0
  1 30  1  0  0  0  0
  1 31  1  0  0  0  0
  1 32  1  0  0  0  0
  2  3  1  0  0  0  0
  2 33  1  0  0  0  0
  2 34  1  0  0  0  0
  3  4  1  0  0  0  0
  4 10  2  0  0  0  0
  4  5  1  0  0  0  0
  5  6  2  0  0  0  0
  6  7  1  0  0  0  0
  6 13  1  0  0  0  0
  7  8  2  0  0  0  0
  7 35  1  0  0  0  0
  8  9  1  0  0  0  0
  8 10  1  0  0  0  0
  9 36  1  0  0  0  0
  9 37  1  0  0  0  0
 10 11  1  0  0  0  0
 11 12  3  0  0  0  0
 13 14  1  0  0  0  0
 13 38  1  0  0  0  0
 14 15  2  0  0  0  0
 14 16  1  0  0  0  0
 16 17  1  0  0  0  0
 16 39  1  0  0  0  0
 16 40  1  0  0  0  0
 17 27  2  0  0  0  0
 17 18  1  0  0  0  0
 18 19  1  0  0  0  0
 18 21  2  0  0  0  0
 19 20  1  0  0  0  0
 20 41  1  0  0  0  0
 20 42  1  0  0  0  0
 20 43  1  0  0  0  0
 21 22  1  0  0  0  0
 21 44  1  0  0  0  0
 22 23  1  0  0  0  0
 22 26  2  0  0  0  0
 23 24  1  0  0  0  0
 23 25  2  0  0  0  0
 26 27  1  0  0  0  0
 26 28  1  0  0  0  0
 27 45  1  0  0  0  0
 28 29  1  0  0  0  0
 29 46  1  0  0  0  0
 29 47  1  0  0  0  0
 29 48  1  0  0  0  0
M  CHG  2  23   1  24  -1
M  END
$$$$
