CAT-13e
 OpenBabel02232411143D
Structure written by MMmdl.
 46 49  0  0  1  0  0  0  0  0999 V2000
   11.5220   -2.1870    1.3490 C   0  0  0  0  0  0  0  0  0  0  0  0
   12.8680   -2.1390    0.7410 N   0  0  0  0  0  0  0  0  0  0  0  0
   14.0620   -2.3270    1.4420 C   0  0  0  0  0  0  0  0  0  0  0  0
   14.2360   -2.4650    2.7900 N   0  0  0  0  0  0  0  0  0  0  0  0
   15.1250   -2.3940    0.5470 N   0  3  0  0  0  0  0  0  0  0  0  0
   14.6230   -2.6250   -0.8580 C   0  0  1  0  0  0  0  0  0  0  0  0
   15.3390   -1.6500   -1.7690 C   0  0  0  0  0  0  0  0  0  0  0  0
   16.2580   -2.0620   -2.7400 C   0  0  0  0  0  0  0  0  0  0  0  0
   16.8330   -1.1080   -3.5890 C   0  0  0  0  0  0  0  0  0  0  0  0
   16.5290    0.2480   -3.4550 C   0  0  0  0  0  0  0  0  0  0  0  0
   15.6650    0.6780   -2.4350 C   0  0  0  0  0  0  0  0  0  0  0  0
   15.3700    2.1080   -2.1900 C   0  0  0  0  0  0  0  0  0  0  0  0
   14.9790    2.9680   -3.2270 C   0  0  0  0  0  0  0  0  0  0  0  0
   14.5990    4.2840   -2.9410 C   0  0  0  0  0  0  0  0  0  0  0  0
   14.5870    4.7520   -1.6240 C   0  0  0  0  0  0  0  0  0  0  0  0
   15.0050    3.8920   -0.6050 C   0  0  0  0  0  0  0  0  0  0  0  0
   14.9390    4.4160    1.0370 Cl  0  0  0  0  0  0  0  0  0  0  0  0
   15.4260    2.5910   -0.8710 C   0  0  0  0  0  0  0  0  0  0  0  0
   15.0590   -0.2830   -1.6120 C   0  0  0  0  0  0  0  0  0  0  0  0
   14.6330   -4.1130   -1.2610 C   0  0  0  0  0  0  0  0  0  0  0  0
   15.6840   -5.0180   -0.5610 C   0  0  0  0  0  0  0  0  0  0  0  0
   14.5510   -5.8470    0.0880 C   0  0  0  0  0  0  0  0  0  0  0  0
   13.5010   -5.0110   -0.6740 C   0  0  0  0  0  0  0  0  0  0  0  0
   13.1170   -2.2180   -0.7160 C   0  0  0  0  0  0  0  0  0  0  0  0
   12.2660   -1.9950   -1.5160 O   0  0  0  0  0  0  0  0  0  0  0  0
   10.9300   -3.0240    0.8890 H   0  0  0  0  0  0  0  0  0  0  0  0
   11.0080   -1.2060    1.1610 H   0  0  0  0  0  0  0  0  0  0  0  0
   11.5870   -2.3660    2.4510 H   0  0  0  0  0  0  0  0  0  0  0  0
   13.5630   -2.0250    3.4680 H   0  0  0  0  0  0  0  0  0  0  0  0
   16.0610   -2.7410    0.8850 H   0  0  0  0  0  0  0  0  0  0  0  0
   16.5350   -3.1130   -2.8360 H   0  0  0  0  0  0  0  0  0  0  0  0
   17.5370   -1.4270   -4.3640 H   0  0  0  0  0  0  0  0  0  0  0  0
   16.9680    0.9720   -4.1440 H   0  0  0  0  0  0  0  0  0  0  0  0
   14.9520    2.6070   -4.2600 H   0  0  0  0  0  0  0  0  0  0  0  0
   14.2850    4.9460   -3.7570 H   0  0  0  0  0  0  0  0  0  0  0  0
   14.2320    5.7600   -1.3970 H   0  0  0  0  0  0  0  0  0  0  0  0
   15.7820    1.9410   -0.0690 H   0  0  0  0  0  0  0  0  0  0  0  0
   14.3630    0.0370   -0.8380 H   0  0  0  0  0  0  0  0  0  0  0  0
   14.6710   -4.1890   -2.3690 H   0  0  0  0  0  0  0  0  0  0  0  0
   16.3510   -4.5160    0.1530 H   0  0  0  0  0  0  0  0  0  0  0  0
   16.3140   -5.5690   -1.2720 H   0  0  0  0  0  0  0  0  0  0  0  0
   14.5570   -6.9210   -0.1630 H   0  0  0  0  0  0  0  0  0  0  0  0
   14.4710   -5.7120    1.1840 H   0  0  0  0  0  0  0  0  0  0  0  0
   12.7710   -4.5340   -0.0050 H   0  0  0  0  0  0  0  0  0  0  0  0
   12.9620   -5.5730   -1.4590 H   0  0  0  0  0  0  0  0  0  0  0  0
   15.2290   -2.4480    3.1600 H   0  0  0  0  0  0  0  0  0  0  0  0
  1  2  1  0  0  0  0
  1 26  1  0  0  0  0
  1 27  1  0  0  0  0
  1 28  1  0  0  0  0
  2  3  1  0  0  0  0
  2 24  1  0  0  0  0
  3  4  1  0  0  0  0
  3  5  2  0  0  0  0
  4 29  1  0  0  0  0
  4 46  1  0  0  0  0
  5  6  1  0  0  0  0
  5 30  1  0  0  0  0
  6  7  1  6  0  0  0
  6 20  1  0  0  0  0
  6 24  1  0  0  0  0
  7  8  2  0  0  0  0
  7 19  1  0  0  0  0
  8  9  1  0  0  0  0
  8 31  1  0  0  0  0
  9 10  2  0  0  0  0
  9 32  1  0  0  0  0
 10 11  1  0  0  0  0
 10 33  1  0  0  0  0
 11 12  1  0  0  0  0
 11 19  2  0  0  0  0
 12 13  2  0  0  0  0
 12 18  1  0  0  0  0
 13 14  1  0  0  0  0
 13 34  1  0  0  0  0
 14 15  2  0  0  0  0
 14 35  1  0  0  0  0
 15 16  1  0  0  0  0
 15 36  1  0  0  0  0
 16 17  1  0  0  0  0
 16 18  2  0  0  0  0
 18 37  1  0  0  0  0
 19 38  1  0  0  0  0
 20 21  1  0  0  0  0
 20 23  1  0  0  0  0
 20 39  1  0  0  0  0
 21 22  1  0  0  0  0
 21 40  1  0  0  0  0
 21 41  1  0  0  0  0
 22 23  1  0  0  0  0
 22 42  1  0  0  0  0
 22 43  1  0  0  0  0
 23 44  1  0  0  0  0
 23 45  1  0  0  0  0
 24 25  2  0  0  0  0
M  CHG  1   5   1
M  END
$$$$
