p38a_3flw
 OpenBabel02232411163D
Structure written by MMmdl.
 49 51  0  0  0  0  0  0  0  0999 V2000
   38.2870   36.5270   17.1750 C   0  0  0  0  0  0  0  0  0  0  0  0
   37.6330   36.6760   15.9440 C   0  0  0  0  0  0  0  0  0  0  0  0
   31.5370   38.5190   25.6290 C   0  0  0  0  0  0  0  0  0  0  0  0
   30.7610   39.0430   24.4160 C   0  0  0  0  0  0  0  0  0  0  0  0
   33.6540   38.5850   27.0200 C   0  0  0  0  0  0  0  0  0  0  0  0
   33.5860   35.0500   23.5930 C   0  0  0  0  0  0  0  0  0  0  0  0
   38.0500   35.9440   19.4420 F   0  0  0  0  0  0  0  0  0  0  0  0
   37.5120   36.0660   18.2360 C   0  0  0  0  0  0  0  0  0  0  0  0
   38.3220   37.1810   14.9230 F   0  0  0  0  0  0  0  0  0  0  0  0
   36.2870   36.3620   15.7440 C   0  0  0  0  0  0  0  0  0  0  0  0
   35.5340   35.8850   16.8230 C   0  0  0  0  0  0  0  0  0  0  0  0
   36.1530   35.7270   18.0660 C   0  0  0  0  0  0  0  0  0  0  0  0
   35.4420   35.0990   19.0980 O   0  0  0  0  0  0  0  0  0  0  0  0
   35.0480   35.9270   20.1480 C   0  0  0  0  0  0  0  0  0  0  0  0
   35.1080   37.2780   20.1920 C   0  0  0  0  0  0  0  0  0  0  0  0
   34.6870   37.9500   21.3900 C   0  0  0  0  0  0  0  0  0  0  0  0
   34.7250   39.3640   21.5320 C   0  0  0  0  0  0  0  0  0  0  0  0
   34.3660   39.9920   22.6570 N   0  0  0  0  0  0  0  0  0  0  0  0
   34.5060   35.0790   21.2420 C   0  0  0  0  0  0  0  0  0  0  0  0
   34.3690   33.8750   21.1970 O   0  0  0  0  0  0  0  0  0  0  0  0
   34.1270   35.8020   22.4270 N   0  0  0  0  0  0  0  0  0  0  0  0
   34.2190   37.2020   22.5090 C   0  0  0  0  0  0  0  0  0  0  0  0
   33.8430   37.8120   23.6810 N   0  0  0  0  0  0  0  0  0  0  0  0
   33.9150   39.1890   23.7320 C   0  0  0  0  0  0  0  0  0  0  0  0
   33.6000   39.8680   24.8850 N   0  0  0  0  0  0  0  0  0  0  0  0
   32.7690   39.3610   26.0200 C   0  0  0  0  0  0  0  0  0  0  0  0
   34.7470   39.4850   27.6120 C   0  0  0  0  0  0  0  0  0  0  0  0
   35.3800   38.8580   28.7430 O   0  0  0  0  0  0  0  0  0  0  0  0
   30.7330   40.4750   24.3760 O   0  0  0  0  0  0  0  0  0  0  0  0
   39.3390   36.7970   17.3040 H   0  0  0  0  0  0  0  0  0  0  0  0
   30.8610   38.4890   26.5200 H   0  0  0  0  0  0  0  0  0  0  0  0
   31.8490   37.4640   25.4130 H   0  0  0  0  0  0  0  0  0  0  0  0
   31.2870   38.7960   23.4660 H   0  0  0  0  0  0  0  0  0  0  0  0
   29.7220   38.6480   24.4210 H   0  0  0  0  0  0  0  0  0  0  0  0
   32.9990   38.2020   27.8430 H   0  0  0  0  0  0  0  0  0  0  0  0
   34.1090   37.7020   26.5090 H   0  0  0  0  0  0  0  0  0  0  0  0
   34.1650   35.3050   24.5220 H   0  0  0  0  0  0  0  0  0  0  0  0
   32.5110   35.3320   23.7630 H   0  0  0  0  0  0  0  0  0  0  0  0
   33.6530   33.9460   23.4110 H   0  0  0  0  0  0  0  0  0  0  0  0
   35.8110   36.4970   14.7700 H   0  0  0  0  0  0  0  0  0  0  0  0
   34.4720   35.6570   16.6870 H   0  0  0  0  0  0  0  0  0  0  0  0
   35.4700   37.8850   19.3600 H   0  0  0  0  0  0  0  0  0  0  0  0
   35.0510   39.9880   20.6840 H   0  0  0  0  0  0  0  0  0  0  0  0
   33.6190   40.9080   24.8530 H   0  0  0  0  0  0  0  0  0  0  0  0
   32.3880   40.3010   26.5220 H   0  0  0  0  0  0  0  0  0  0  0  0
   35.5280   39.7180   26.8540 H   0  0  0  0  0  0  0  0  0  0  0  0
   34.3140   40.4150   28.0490 H   0  0  0  0  0  0  0  0  0  0  0  0
   35.7200   37.9710   28.4730 H   0  0  0  0  0  0  0  0  0  0  0  0
   29.9970   40.8230   24.9570 H   0  0  0  0  0  0  0  0  0  0  0  0
  1  2  2  0  0  0  0
  1  8  1  0  0  0  0
  1 30  1  0  0  0  0
  2  9  1  0  0  0  0
  2 10  1  0  0  0  0
  3  4  1  0  0  0  0
  3 26  1  0  0  0  0
  3 31  1  0  0  0  0
  3 32  1  0  0  0  0
  4 29  1  0  0  0  0
  4 33  1  0  0  0  0
  4 34  1  0  0  0  0
  5 26  1  0  0  0  0
  5 27  1  0  0  0  0
  5 35  1  0  0  0  0
  5 36  1  0  0  0  0
  6 21  1  0  0  0  0
  6 37  1  0  0  0  0
  6 38  1  0  0  0  0
  6 39  1  0  0  0  0
  7  8  1  0  0  0  0
  8 12  2  0  0  0  0
 10 11  2  0  0  0  0
 10 40  1  0  0  0  0
 11 12  1  0  0  0  0
 11 41  1  0  0  0  0
 12 13  1  0  0  0  0
 13 14  1  0  0  0  0
 14 15  2  0  0  0  0
 14 19  1  0  0  0  0
 15 16  1  0  0  0  0
 15 42  1  0  0  0  0
 16 17  2  0  0  0  0
 16 22  1  0  0  0  0
 17 18  1  0  0  0  0
 17 43  1  0  0  0  0
 18 24  2  0  0  0  0
 19 20  2  0  0  0  0
 19 21  1  0  0  0  0
 21 22  1  0  0  0  0
 22 23  2  0  0  0  0
 23 24  1  0  0  0  0
 24 25  1  0  0  0  0
 25 26  1  0  0  0  0
 25 44  1  0  0  0  0
 26 45  1  0  0  0  0
 27 28  1  0  0  0  0
 27 46  1  0  0  0  0
 27 47  1  0  0  0  0
 28 48  1  0  0  0  0
 29 49  1  0  0  0  0
M  END
$$$$
