1h1s
 OpenBabel02232411153D
Structure written by MMmdl.
 50 53  0  0  0  0  0  0  0  0999 V2000
    1.7810   28.8930    6.7920 C   0  0  0  0  0  0  0  0  0  0  0  0
   -1.6560   31.5160    8.0050 C   0  0  0  0  0  0  0  0  0  0  0  0
   -0.1870   26.0220    8.8990 C   0  0  0  0  0  0  0  0  0  0  0  0
   -0.9290   25.3190   10.0430 C   0  0  0  0  0  0  0  0  0  0  0  0
   -0.7110   23.7990    9.8590 C   0  0  0  0  0  0  0  0  0  0  0  0
   -1.3080   23.0020   11.0280 C   0  0  0  0  0  0  0  0  0  0  0  0
   -0.7610   23.4920   12.3770 C   0  0  0  0  0  0  0  0  0  0  0  0
   -1.0160   24.9950   12.5650 C   0  0  0  0  0  0  0  0  0  0  0  0
   -0.4100   25.8060   11.4100 C   0  0  0  0  0  0  0  0  0  0  0  0
    4.2730   25.3740    7.8810 C   0  0  0  0  0  0  0  0  0  0  0  0
    5.1620   24.9110    6.9000 C   0  0  0  0  0  0  0  0  0  0  0  0
    5.3640   25.6850    5.7500 C   0  0  0  0  0  0  0  0  0  0  0  0
    4.6520   26.8650    5.5540 C   0  0  0  0  0  0  0  0  0  0  0  0
    1.0640   27.9400    7.5060 N   0  0  0  0  0  0  0  0  0  0  0  0
   -0.1200   28.2770    8.0810 C   0  0  0  0  0  0  0  0  0  0  0  0
   -0.7950   27.3760    8.8090 O   0  0  0  0  0  0  0  0  0  0  0  0
   -0.6300   29.5930    7.9260 C   0  0  0  0  0  0  0  0  0  0  0  0
   -1.7670   30.2480    8.4110 N   0  0  0  0  0  0  0  0  0  0  0  0
   -0.4490   31.7430    7.2540 N   0  0  0  0  0  0  0  0  0  0  0  0
    0.2040   30.5180    7.1760 C   0  0  0  0  0  0  0  0  0  0  0  0
    1.3960   30.2000    6.5690 N   0  0  0  0  0  0  0  0  0  0  0  0
    2.9950   28.4850    6.2310 N   0  0  0  0  0  0  0  0  0  0  0  0
    3.7170   27.2960    6.5220 C   0  0  0  0  0  0  0  0  0  0  0  0
    3.5710   26.5630    7.7160 C   0  0  0  0  0  0  0  0  0  0  0  0
   -2.3510   32.3240    8.2100 H   0  0  0  0  0  0  0  0  0  0  0  0
    0.8980   26.1210    9.1230 H   0  0  0  0  0  0  0  0  0  0  0  0
   -0.3680   25.5460    7.9140 H   0  0  0  0  0  0  0  0  0  0  0  0
   -2.0220   25.5390    9.9850 H   0  0  0  0  0  0  0  0  0  0  0  0
   -1.1890   23.4680    8.9120 H   0  0  0  0  0  0  0  0  0  0  0  0
    0.3850   23.5850    9.8040 H   0  0  0  0  0  0  0  0  0  0  0  0
   -2.4140   23.1180   11.0250 H   0  0  0  0  0  0  0  0  0  0  0  0
   -1.0580   21.9220   10.9040 H   0  0  0  0  0  0  0  0  0  0  0  0
   -1.2480   22.9260   13.2040 H   0  0  0  0  0  0  0  0  0  0  0  0
    0.3380   23.3030   12.4100 H   0  0  0  0  0  0  0  0  0  0  0  0
   -2.1130   25.1810   12.6280 H   0  0  0  0  0  0  0  0  0  0  0  0
   -0.5490   25.3280   13.5200 H   0  0  0  0  0  0  0  0  0  0  0  0
    0.7020   25.6990   11.4530 H   0  0  0  0  0  0  0  0  0  0  0  0
   -0.6660   26.8820   11.5400 H   0  0  0  0  0  0  0  0  0  0  0  0
    4.0960   24.8090    8.8020 H   0  0  0  0  0  0  0  0  0  0  0  0
    6.0800   25.3820    4.9760 H   0  0  0  0  0  0  0  0  0  0  0  0
    4.8150   27.4490    4.6470 H   0  0  0  0  0  0  0  0  0  0  0  0
   -0.1760   32.6220    6.7890 H   0  0  0  0  0  0  0  0  0  0  0  0
    3.4850   29.1440    5.5790 H   0  0  0  0  0  0  0  0  0  0  0  0
    2.9040   26.8990    8.5110 H   0  0  0  0  0  0  0  0  0  0  0  0
    6.0090   23.4220    7.0990 S   0  0  0  0  0  0  0  0  0  0  0  0
    6.0040   22.6470    5.8490 O   0  0  0  0  0  0  0  0  0  0  0  0
    7.3350   23.7080    7.6610 O   0  0  0  0  0  0  0  0  0  0  0  0
    5.1510   22.5110    8.2390 N   0  0  0  0  0  0  0  0  0  0  0  0
    4.2450   22.0800    8.0160 H   0  0  0  0  0  0  0  0  0  0  0  0
    5.1970   22.8110    9.2540 H   0  0  0  0  0  0  0  0  0  0  0  0
  1 14  2  0  0  0  0
  1 21  1  0  0  0  0
  1 22  1  0  0  0  0
  2 18  2  0  0  0  0
  2 19  1  0  0  0  0
  2 25  1  0  0  0  0
  3  4  1  0  0  0  0
  3 16  1  0  0  0  0
  3 26  1  0  0  0  0
  3 27  1  0  0  0  0
  4  5  1  0  0  0  0
  4  9  1  0  0  0  0
  4 28  1  0  0  0  0
  5  6  1  0  0  0  0
  5 29  1  0  0  0  0
  5 30  1  0  0  0  0
  6  7  1  0  0  0  0
  6 31  1  0  0  0  0
  6 32  1  0  0  0  0
  7  8  1  0  0  0  0
  7 33  1  0  0  0  0
  7 34  1  0  0  0  0
  8  9  1  0  0  0  0
  8 35  1  0  0  0  0
  8 36  1  0  0  0  0
  9 37  1  0  0  0  0
  9 38  1  0  0  0  0
 10 11  2  0  0  0  0
 10 24  1  0  0  0  0
 10 39  1  0  0  0  0
 11 12  1  0  0  0  0
 11 45  1  0  0  0  0
 12 13  2  0  0  0  0
 12 40  1  0  0  0  0
 13 23  1  0  0  0  0
 13 41  1  0  0  0  0
 14 15  1  0  0  0  0
 15 16  1  0  0  0  0
 15 17  2  0  0  0  0
 17 18  1  0  0  0  0
 17 20  1  0  0  0  0
 19 20  1  0  0  0  0
 19 42  1  0  0  0  0
 20 21  2  0  0  0  0
 22 23  1  0  0  0  0
 22 43  1  0  0  0  0
 23 24  2  0  0  0  0
 24 44  1  0  0  0  0
 45 46  2  0  0  0  0
 45 47  2  0  0  0  0
 45 48  1  0  0  0  0
 48 49  1  0  0  0  0
 48 50  1  0  0  0  0
M  END
$$$$
