p38a_2ff
 OpenBabel02232411163D
Structure written by MMmdl.
 49 52  0  0  1  0  0  0  0  0999 V2000
   38.2660   36.5330   17.1460 C   0  0  0  0  0  0  0  0  0  0  0  0
   34.5760   35.1050   21.1910 C   0  0  0  0  0  0  0  0  0  0  0  0
   37.4570   36.0760   18.1820 C   0  0  0  0  0  0  0  0  0  0  0  0
   34.0460   39.1900   23.7280 C   0  0  0  0  0  0  0  0  0  0  0  0
   34.6260   37.9850   21.3160 C   0  0  0  0  0  0  0  0  0  0  0  0
   34.9810   37.3250   20.0900 C   0  0  0  0  0  0  0  0  0  0  0  0
   37.6440   36.7140   15.9030 C   0  0  0  0  0  0  0  0  0  0  0  0
   36.2960   36.4330   15.6680 C   0  0  0  0  0  0  0  0  0  0  0  0
   35.5070   35.9600   16.7210 C   0  0  0  0  0  0  0  0  0  0  0  0
   34.3400   37.2150   22.4830 C   0  0  0  0  0  0  0  0  0  0  0  0
   34.5650   39.3990   21.4480 C   0  0  0  0  0  0  0  0  0  0  0  0
   34.9890   35.9720   20.0570 C   0  0  0  0  0  0  0  0  0  0  0  0
   36.0930   35.7750   17.9760 C   0  0  0  0  0  0  0  0  0  0  0  0
   34.0320   35.0360   23.6570 C   0  0  0  0  0  0  0  0  0  0  0  0
   37.9630   35.9210   19.3980 F   0  0  0  0  0  0  0  0  0  0  0  0
   35.3390   35.1560   18.9820 O   0  0  0  0  0  0  0  0  0  0  0  0
   34.2890   40.0120   22.6070 N   0  0  0  0  0  0  0  0  0  0  0  0
   34.4410   33.9020   21.1470 O   0  0  0  0  0  0  0  0  0  0  0  0
   34.3250   35.8120   22.4190 N   0  0  0  0  0  0  0  0  0  0  0  0
   34.0700   37.8090   23.6900 N   0  0  0  0  0  0  0  0  0  0  0  0
   33.7010   39.8190   24.9000 N   0  0  0  0  0  0  0  0  0  0  0  0
   39.3210   36.7770   17.3020 H   0  0  0  0  0  0  0  0  0  0  0  0
   35.2460   37.9420   19.2290 H   0  0  0  0  0  0  0  0  0  0  0  0
   35.8460   36.5950   14.6860 H   0  0  0  0  0  0  0  0  0  0  0  0
   34.4440   35.7550   16.5580 H   0  0  0  0  0  0  0  0  0  0  0  0
   34.7480   40.0420   20.5700 H   0  0  0  0  0  0  0  0  0  0  0  0
   34.7680   35.3080   24.4620 H   0  0  0  0  0  0  0  0  0  0  0  0
   32.9990   35.2770   24.0280 H   0  0  0  0  0  0  0  0  0  0  0  0
   34.1020   33.9370   23.4520 H   0  0  0  0  0  0  0  0  0  0  0  0
   33.7750   40.8530   24.9680 H   0  0  0  0  0  0  0  0  0  0  0  0
   38.3660   37.2170   14.9050 F   0  0  0  0  0  0  0  0  0  0  0  0
   32.2950   39.0270   28.3620 C   0  0  0  0  0  0  0  0  0  0  0  0
   32.3700   39.6310   26.9550 C   0  0  0  0  0  0  0  0  0  0  0  0
   33.6340   39.1230   26.2210 C   0  0  2  0  0  0  0  0  0  0  0  0
   34.9210   39.4360   27.0220 C   0  0  0  0  0  0  0  0  0  0  0  0
   34.8340   38.8640   28.4420 C   0  0  0  0  0  0  0  0  0  0  0  0
   33.5690   39.3800   29.1540 C   0  0  2  0  0  0  0  0  0  0  0  0
   32.1820   37.9190   28.2860 H   0  0  0  0  0  0  0  0  0  0  0  0
   31.4010   39.4280   28.8940 H   0  0  0  0  0  0  0  0  0  0  0  0
   32.4040   40.7440   27.0300 H   0  0  0  0  0  0  0  0  0  0  0  0
   31.4620   39.3430   26.3750 H   0  0  0  0  0  0  0  0  0  0  0  0
   33.5490   38.0130   26.0680 H   0  0  0  0  0  0  0  0  0  0  0  0
   35.7980   38.9850   26.5030 H   0  0  0  0  0  0  0  0  0  0  0  0
   35.0690   40.5430   27.0750 H   0  0  0  0  0  0  0  0  0  0  0  0
   34.8160   37.7490   28.3910 H   0  0  0  0  0  0  0  0  0  0  0  0
   35.7390   39.1720   29.0180 H   0  0  0  0  0  0  0  0  0  0  0  0
   33.6310   40.4790   29.3410 H   0  0  0  0  0  0  0  0  0  0  0  0
   33.4950   38.8450   30.4880 O   0  0  0  0  0  0  0  0  0  0  0  0
   33.4220   37.8580   30.4530 H   0  0  0  0  0  0  0  0  0  0  0  0
  1  3  2  0  0  0  0
  1  7  1  0  0  0  0
  1 22  1  0  0  0  0
  2 12  1  0  0  0  0
  2 18  2  0  0  0  0
  2 19  1  0  0  0  0
  3 13  1  0  0  0  0
  3 15  1  0  0  0  0
  4 17  2  0  0  0  0
  4 20  1  0  0  0  0
  4 21  1  0  0  0  0
  5  6  1  0  0  0  0
  5 10  1  0  0  0  0
  5 11  2  0  0  0  0
  6 12  2  0  0  0  0
  6 23  1  0  0  0  0
  7  8  2  0  0  0  0
  7 31  1  0  0  0  0
  8  9  1  0  0  0  0
  8 24  1  0  0  0  0
  9 13  2  0  0  0  0
  9 25  1  0  0  0  0
 10 19  1  0  0  0  0
 10 20  2  0  0  0  0
 11 17  1  0  0  0  0
 11 26  1  0  0  0  0
 12 16  1  0  0  0  0
 13 16  1  0  0  0  0
 14 19  1  0  0  0  0
 14 27  1  0  0  0  0
 14 28  1  0  0  0  0
 14 29  1  0  0  0  0
 21 30  1  0  0  0  0
 21 34  1  0  0  0  0
 32 33  1  0  0  0  0
 32 37  1  0  0  0  0
 32 38  1  0  0  0  0
 32 39  1  0  0  0  0
 33 34  1  0  0  0  0
 33 40  1  0  0  0  0
 33 41  1  0  0  0  0
 34 35  1  0  0  0  0
 34 42  1  6  0  0  0
 35 36  1  0  0  0  0
 35 43  1  0  0  0  0
 35 44  1  0  0  0  0
 36 37  1  0  0  0  0
 36 45  1  0  0  0  0
 36 46  1  0  0  0  0
 37 47  1  1  0  0  0
 37 48  1  0  0  0  0
 48 49  1  0  0  0  0
M  END
$$$$
