18637-1
 OpenBabel02232411163D
Structure written by MMmdl.
 53 54  0  0  0  0  0  0  0  0999 V2000
   23.1890   10.8510   29.0830 C   0  0  0  0  0  0  0  0  0  0  0  0
   23.4500   11.0830   30.5560 C   0  0  0  0  0  0  0  0  0  0  0  0
   22.1800   11.1760   31.3050 O   0  0  0  0  0  0  0  0  0  0  0  0
   21.5230   10.0420   31.6380 C   0  0  0  0  0  0  0  0  0  0  0  0
   21.9860    8.8500   31.2000 N   0  0  0  0  0  0  0  0  0  0  0  0
   21.2370    7.7200   31.4990 C   0  0  0  0  0  0  0  0  0  0  0  0
   20.0800    7.7690   32.2700 C   0  0  0  0  0  0  0  0  0  0  0  0
   19.6160    9.0240   32.7480 C   0  0  0  0  0  0  0  0  0  0  0  0
   18.4690    9.0770   33.4990 N   0  0  0  0  0  0  0  0  0  0  0  0
   20.3420   10.2140   32.4190 C   0  0  0  0  0  0  0  0  0  0  0  0
   19.9440   11.5160   32.7840 C   0  0  0  0  0  0  0  0  0  0  0  0
   19.6660   12.6130   33.0410 N   0  0  0  0  0  0  0  0  0  0  0  0
   21.7920    6.5660   30.9100 N   0  0  0  0  0  0  0  0  0  0  0  0
   21.1940    5.2870   30.8140 C   0  0  0  0  0  0  0  0  0  0  0  0
   20.1160    5.0340   31.3060 O   0  0  0  0  0  0  0  0  0  0  0  0
   22.0080    4.3080   29.9770 C   0  0  0  0  0  0  0  0  0  0  0  0
   23.3380    3.9860   30.5890 C   0  0  0  0  0  0  0  0  0  0  0  0
   24.4590    4.8200   30.3840 C   0  0  0  0  0  0  0  0  0  0  0  0
   24.1970    5.8940   29.5490 O   0  0  0  0  0  0  0  0  0  0  0  0
   25.1800    6.9620   29.4570 C   0  0  0  0  0  0  0  0  0  0  0  0
   25.7060    4.5550   30.9660 C   0  0  0  0  0  0  0  0  0  0  0  0
   25.8640    3.4170   31.7610 C   0  0  0  0  0  0  0  0  0  0  0  0
   24.7370    2.5610   31.9600 C   0  0  0  0  0  0  0  0  0  0  0  0
   23.5030    2.8400   31.3800 C   0  0  0  0  0  0  0  0  0  0  0  0
   25.0040    1.4940   32.8040 O   0  0  0  0  0  0  0  0  0  0  0  0
   24.1030    0.3590   32.7520 C   0  0  0  0  0  0  0  0  0  0  0  0
   27.0920    3.0990   32.4100 N   0  0  0  0  0  0  0  0  0  0  0  0
   28.3830    3.3760   31.8940 C   0  0  0  0  0  0  0  0  0  0  0  0
   28.5220    3.9250   30.8140 O   0  0  0  0  0  0  0  0  0  0  0  0
   29.5030    2.9540   32.7930 C   0  0  0  0  0  0  0  0  0  0  0  0
   22.7710    9.8330   28.9010 H   0  0  0  0  0  0  0  0  0  0  0  0
   22.4800   11.6060   28.6730 H   0  0  0  0  0  0  0  0  0  0  0  0
   24.1510   10.9380   28.5210 H   0  0  0  0  0  0  0  0  0  0  0  0
   23.8510   12.1060   30.7570 H   0  0  0  0  0  0  0  0  0  0  0  0
   24.0880   10.2860   31.0020 H   0  0  0  0  0  0  0  0  0  0  0  0
   19.5120    6.8650   32.4960 H   0  0  0  0  0  0  0  0  0  0  0  0
   18.0810    9.9650   33.8160 H   0  0  0  0  0  0  0  0  0  0  0  0
   17.9680    8.2100   33.7710 H   0  0  0  0  0  0  0  0  0  0  0  0
   22.7140    6.7160   30.4280 H   0  0  0  0  0  0  0  0  0  0  0  0
   21.4110    3.3680   29.8500 H   0  0  0  0  0  0  0  0  0  0  0  0
   22.1680    4.7670   28.9630 H   0  0  0  0  0  0  0  0  0  0  0  0
   25.4150    7.3610   30.4660 H   0  0  0  0  0  0  0  0  0  0  0  0
   26.0800    6.5920   28.9240 H   0  0  0  0  0  0  0  0  0  0  0  0
   24.6260    7.7130   28.8480 H   0  0  0  0  0  0  0  0  0  0  0  0
   26.5510    5.2300   30.8010 H   0  0  0  0  0  0  0  0  0  0  0  0
   22.6580    2.1660   31.5370 H   0  0  0  0  0  0  0  0  0  0  0  0
   24.6490   -0.3850   33.3800 H   0  0  0  0  0  0  0  0  0  0  0  0
   23.1280    0.6300   33.2130 H   0  0  0  0  0  0  0  0  0  0  0  0
   23.9930   -0.0010   31.7070 H   0  0  0  0  0  0  0  0  0  0  0  0
   27.0220    2.4850   33.2380 H   0  0  0  0  0  0  0  0  0  0  0  0
   29.3670    1.9200   33.2000 H   0  0  0  0  0  0  0  0  0  0  0  0
   30.4810    2.9700   32.2470 H   0  0  0  0  0  0  0  0  0  0  0  0
   29.5910    3.6520   33.6660 H   0  0  0  0  0  0  0  0  0  0  0  0
  1  2  1  0  0  0  0
  1 31  1  0  0  0  0
  1 32  1  0  0  0  0
  1 33  1  0  0  0  0
  2  3  1  0  0  0  0
  2 34  1  0  0  0  0
  2 35  1  0  0  0  0
  3  4  1  0  0  0  0
  4 10  2  0  0  0  0
  4  5  1  0  0  0  0
  5  6  2  0  0  0  0
  6  7  1  0  0  0  0
  6 13  1  0  0  0  0
  7  8  2  0  0  0  0
  7 36  1  0  0  0  0
  8  9  1  0  0  0  0
  8 10  1  0  0  0  0
  9 37  1  0  0  0  0
  9 38  1  0  0  0  0
 10 11  1  0  0  0  0
 11 12  3  0  0  0  0
 13 14  1  0  0  0  0
 13 39  1  0  0  0  0
 14 15  2  0  0  0  0
 14 16  1  0  0  0  0
 16 17  1  0  0  0  0
 16 40  1  0  0  0  0
 16 41  1  0  0  0  0
 17 24  2  0  0  0  0
 17 18  1  0  0  0  0
 18 19  1  0  0  0  0
 18 21  2  0  0  0  0
 19 20  1  0  0  0  0
 20 42  1  0  0  0  0
 20 43  1  0  0  0  0
 20 44  1  0  0  0  0
 21 22  1  0  0  0  0
 21 45  1  0  0  0  0
 22 23  2  0  0  0  0
 22 27  1  0  0  0  0
 23 24  1  0  0  0  0
 23 25  1  0  0  0  0
 24 46  1  0  0  0  0
 25 26  1  0  0  0  0
 26 47  1  0  0  0  0
 26 48  1  0  0  0  0
 26 49  1  0  0  0  0
 27 28  1  0  0  0  0
 27 50  1  0  0  0  0
 28 29  2  0  0  0  0
 28 30  1  0  0  0  0
 30 51  1  0  0  0  0
 30 52  1  0  0  0  0
 30 53  1  0  0  0  0
M  END
$$$$
