p38a_2n
 OpenBabel02232411163D
Structure written by MMmdl.
 53 56  0  0  0  0  0  0  0  0999 V2000
   38.2390   36.4740   17.2420 C   0  0  0  0  0  0  0  0  0  0  0  0
   34.6070   35.1000   21.4000 C   0  0  0  0  0  0  0  0  0  0  0  0
   37.4600   36.0340   18.3090 C   0  0  0  0  0  0  0  0  0  0  0  0
   34.0050   39.2520   23.8070 C   0  0  0  0  0  0  0  0  0  0  0  0
   34.6330   37.9710   21.4440 C   0  0  0  0  0  0  0  0  0  0  0  0
   35.0030   37.2840   20.2380 C   0  0  0  0  0  0  0  0  0  0  0  0
   37.5870   36.6050   16.0070 C   0  0  0  0  0  0  0  0  0  0  0  0
   36.2400   36.2930   15.8120 C   0  0  0  0  0  0  0  0  0  0  0  0
   35.4820   35.8430   16.8980 C   0  0  0  0  0  0  0  0  0  0  0  0
   34.3180   37.2400   22.6270 C   0  0  0  0  0  0  0  0  0  0  0  0
   34.5850   39.3900   21.5320 C   0  0  0  0  0  0  0  0  0  0  0  0
   35.0210   35.9310   20.2400 C   0  0  0  0  0  0  0  0  0  0  0  0
   36.0980   35.7030   18.1450 C   0  0  0  0  0  0  0  0  0  0  0  0
   38.0000   35.9220   19.5150 F   0  0  0  0  0  0  0  0  0  0  0  0
   35.3810   35.0930   19.1850 O   0  0  0  0  0  0  0  0  0  0  0  0
   34.2880   40.0380   22.6640 N   0  0  0  0  0  0  0  0  0  0  0  0
   34.5000   33.8890   21.3900 O   0  0  0  0  0  0  0  0  0  0  0  0
   34.3370   35.8310   22.6080 N   0  0  0  0  0  0  0  0  0  0  0  0
   34.0010   37.8730   23.8050 N   0  0  0  0  0  0  0  0  0  0  0  0
   33.7550   39.9650   24.9540 N   0  0  0  0  0  0  0  0  0  0  0  0
   39.2920   36.7410   17.3660 H   0  0  0  0  0  0  0  0  0  0  0  0
   35.2690   37.8830   19.3630 H   0  0  0  0  0  0  0  0  0  0  0  0
   35.7670   36.4130   14.8340 H   0  0  0  0  0  0  0  0  0  0  0  0
   34.4180   35.6220   16.7650 H   0  0  0  0  0  0  0  0  0  0  0  0
   34.7890   40.0050   20.6390 H   0  0  0  0  0  0  0  0  0  0  0  0
   33.7630   41.0040   24.9010 H   0  0  0  0  0  0  0  0  0  0  0  0
   38.2810   37.0910   14.9810 F   0  0  0  0  0  0  0  0  0  0  0  0
   33.6220   38.0740   28.3040 C   0  0  0  0  0  0  0  0  0  0  0  0
   34.2050   38.4840   26.9460 C   0  0  0  0  0  0  0  0  0  0  0  0
   33.2320   39.4580   26.2570 C   0  0  0  0  0  0  0  0  0  0  0  0
   31.8350   38.8180   26.1290 C   0  0  0  0  0  0  0  0  0  0  0  0
   31.3520   38.3740   27.5170 C   0  0  0  0  0  0  0  0  0  0  0  0
   32.3010   37.5010   28.1700 O   0  0  0  0  0  0  0  0  0  0  0  0
   33.5680   38.9470   28.9960 H   0  0  0  0  0  0  0  0  0  0  0  0
   34.1990   37.2330   28.7530 H   0  0  0  0  0  0  0  0  0  0  0  0
   34.3540   37.5760   26.3110 H   0  0  0  0  0  0  0  0  0  0  0  0
   35.1950   38.9760   27.0950 H   0  0  0  0  0  0  0  0  0  0  0  0
   33.1440   40.3920   26.8930 H   0  0  0  0  0  0  0  0  0  0  0  0
   31.1150   39.5530   25.6990 H   0  0  0  0  0  0  0  0  0  0  0  0
   31.8830   37.9320   25.4520 H   0  0  0  0  0  0  0  0  0  0  0  0
   31.1660   39.2510   28.1750 H   0  0  0  0  0  0  0  0  0  0  0  0
   30.4500   37.7230   27.4390 H   0  0  0  0  0  0  0  0  0  0  0  0
   34.0610   35.0630   23.8690 C   0  0  0  0  0  0  0  0  0  0  0  0
   34.5580   34.0590   23.7770 H   0  0  0  0  0  0  0  0  0  0  0  0
   34.5390   35.6180   24.7280 H   0  0  0  0  0  0  0  0  0  0  0  0
   32.5670   34.8960   24.1740 C   0  0  0  0  0  0  0  0  0  0  0  0
   32.4960   34.4250   25.1910 H   0  0  0  0  0  0  0  0  0  0  0  0
   32.0830   35.9040   24.2480 H   0  0  0  0  0  0  0  0  0  0  0  0
   31.7610   34.0550   23.1730 C   0  0  0  0  0  0  0  0  0  0  0  0
   30.7490   33.8340   23.5880 H   0  0  0  0  0  0  0  0  0  0  0  0
   31.6870   34.5760   22.1930 H   0  0  0  0  0  0  0  0  0  0  0  0
   32.3390   32.7610   22.9550 O   0  0  0  0  0  0  0  0  0  0  0  0
   33.2440   32.9070   22.5730 H   0  0  0  0  0  0  0  0  0  0  0  0
  1  3  2  0  0  0  0
  1  7  1  0  0  0  0
  1 21  1  0  0  0  0
  2 12  1  0  0  0  0
  2 17  2  0  0  0  0
  2 18  1  0  0  0  0
  3 13  1  0  0  0  0
  3 14  1  0  0  0  0
  4 16  2  0  0  0  0
  4 19  1  0  0  0  0
  4 20  1  0  0  0  0
  5  6  1  0  0  0  0
  5 10  1  0  0  0  0
  5 11  2  0  0  0  0
  6 12  2  0  0  0  0
  6 22  1  0  0  0  0
  7  8  2  0  0  0  0
  7 27  1  0  0  0  0
  8  9  1  0  0  0  0
  8 23  1  0  0  0  0
  9 13  2  0  0  0  0
  9 24  1  0  0  0  0
 10 18  1  0  0  0  0
 10 19  2  0  0  0  0
 11 16  1  0  0  0  0
 11 25  1  0  0  0  0
 12 15  1  0  0  0  0
 13 15  1  0  0  0  0
 18 43  1  0  0  0  0
 20 26  1  0  0  0  0
 20 30  1  0  0  0  0
 28 29  1  0  0  0  0
 28 33  1  0  0  0  0
 28 34  1  0  0  0  0
 28 35  1  0  0  0  0
 29 30  1  0  0  0  0
 29 36  1  0  0  0  0
 29 37  1  0  0  0  0
 30 31  1  0  0  0  0
 30 38  1  0  0  0  0
 31 32  1  0  0  0  0
 31 39  1  0  0  0  0
 31 40  1  0  0  0  0
 32 33  1  0  0  0  0
 32 41  1  0  0  0  0
 32 42  1  0  0  0  0
 43 44  1  0  0  0  0
 43 45  1  0  0  0  0
 43 46  1  0  0  0  0
 46 47  1  0  0  0  0
 46 48  1  0  0  0  0
 46 49  1  0  0  0  0
 49 50  1  0  0  0  0
 49 51  1  0  0  0  0
 49 52  1  0  0  0  0
 52 53  1  0  0  0  0
M  END
$$$$
