p38a_2gg
 OpenBabel02232411163D
Structure written by MMmdl.
 48 51  0  0  0  0  0  0  0  0999 V2000
   38.2200   36.5180   17.1860 C   0  0  0  0  0  0  0  0  0  0  0  0
   34.5640   35.1730   21.2730 C   0  0  0  0  0  0  0  0  0  0  0  0
   37.4070   36.0810   18.2270 C   0  0  0  0  0  0  0  0  0  0  0  0
   34.2380   39.2700   23.8240 C   0  0  0  0  0  0  0  0  0  0  0  0
   34.6410   38.0490   21.3830 C   0  0  0  0  0  0  0  0  0  0  0  0
   34.9540   37.3830   20.1480 C   0  0  0  0  0  0  0  0  0  0  0  0
   37.5970   36.7000   15.9440 C   0  0  0  0  0  0  0  0  0  0  0  0
   36.2430   36.4420   15.7150 C   0  0  0  0  0  0  0  0  0  0  0  0
   35.4490   35.9930   16.7770 C   0  0  0  0  0  0  0  0  0  0  0  0
   34.4020   37.2890   22.5670 C   0  0  0  0  0  0  0  0  0  0  0  0
   34.5760   39.4620   21.5060 C   0  0  0  0  0  0  0  0  0  0  0  0
   34.9550   36.0300   20.1220 C   0  0  0  0  0  0  0  0  0  0  0  0
   36.0370   35.8060   18.0310 C   0  0  0  0  0  0  0  0  0  0  0  0
   34.1400   35.1190   23.7640 C   0  0  0  0  0  0  0  0  0  0  0  0
   37.9180   35.9160   19.4410 F   0  0  0  0  0  0  0  0  0  0  0  0
   35.2750   35.2070   19.0440 O   0  0  0  0  0  0  0  0  0  0  0  0
   34.3740   40.0800   22.6800 N   0  0  0  0  0  0  0  0  0  0  0  0
   34.4060   33.9730   21.2390 O   0  0  0  0  0  0  0  0  0  0  0  0
   34.3630   35.8890   22.5080 N   0  0  0  0  0  0  0  0  0  0  0  0
   34.1960   37.8950   23.7850 N   0  0  0  0  0  0  0  0  0  0  0  0
   34.2290   39.9470   25.0320 N   0  0  0  0  0  0  0  0  0  0  0  0
   39.2800   36.7450   17.3360 H   0  0  0  0  0  0  0  0  0  0  0  0
   35.1980   37.9970   19.2790 H   0  0  0  0  0  0  0  0  0  0  0  0
   35.7930   36.6010   14.7330 H   0  0  0  0  0  0  0  0  0  0  0  0
   34.3820   35.8070   16.6190 H   0  0  0  0  0  0  0  0  0  0  0  0
   34.6830   40.1020   20.6150 H   0  0  0  0  0  0  0  0  0  0  0  0
   34.9640   35.3400   24.4950 H   0  0  0  0  0  0  0  0  0  0  0  0
   33.1620   35.4250   24.2280 H   0  0  0  0  0  0  0  0  0  0  0  0
   34.1190   34.0200   23.5480 H   0  0  0  0  0  0  0  0  0  0  0  0
   34.0630   40.9760   25.0030 H   0  0  0  0  0  0  0  0  0  0  0  0
   38.3260   37.1820   14.9390 F   0  0  0  0  0  0  0  0  0  0  0  0
   34.4910   37.7680   28.1930 C   0  0  0  0  0  0  0  0  0  0  0  0
   34.6690   38.1200   26.7160 C   0  0  0  0  0  0  0  0  0  0  0  0
   33.8590   39.3840   26.3620 C   0  0  0  0  0  0  0  0  0  0  0  0
   32.3320   39.1450   26.4790 C   0  0  0  0  0  0  0  0  0  0  0  0
   31.9410   38.8900   27.9360 C   0  0  0  0  0  0  0  0  0  0  0  0
   34.9250   38.5970   28.8160 H   0  0  0  0  0  0  0  0  0  0  0  0
   35.0950   36.8510   28.4190 H   0  0  0  0  0  0  0  0  0  0  0  0
   34.3580   37.2610   26.0690 H   0  0  0  0  0  0  0  0  0  0  0  0
   35.7510   38.3280   26.5160 H   0  0  0  0  0  0  0  0  0  0  0  0
   34.1450   40.2050   27.0890 H   0  0  0  0  0  0  0  0  0  0  0  0
   31.8000   40.0620   26.1160 H   0  0  0  0  0  0  0  0  0  0  0  0
   32.0270   38.2920   25.8260 H   0  0  0  0  0  0  0  0  0  0  0  0
   32.1730   39.8160   28.5330 H   0  0  0  0  0  0  0  0  0  0  0  0
   30.8340   38.7370   27.9950 H   0  0  0  0  0  0  0  0  0  0  0  0
   32.8050   37.5150   28.6150 S   0  0  0  0  0  0  0  0  0  0  0  0
   32.3000   36.2410   28.0530 O   0  0  0  0  0  0  0  0  0  0  0  0
   32.6600   37.5030   30.0970 O   0  0  0  0  0  0  0  0  0  0  0  0
  1  3  2  0  0  0  0
  1  7  1  0  0  0  0
  1 22  1  0  0  0  0
  2 12  1  0  0  0  0
  2 18  2  0  0  0  0
  2 19  1  0  0  0  0
  3 13  1  0  0  0  0
  3 15  1  0  0  0  0
  4 17  2  0  0  0  0
  4 20  1  0  0  0  0
  4 21  1  0  0  0  0
  5  6  1  0  0  0  0
  5 10  1  0  0  0  0
  5 11  2  0  0  0  0
  6 12  2  0  0  0  0
  6 23  1  0  0  0  0
  7  8  2  0  0  0  0
  7 31  1  0  0  0  0
  8  9  1  0  0  0  0
  8 24  1  0  0  0  0
  9 13  2  0  0  0  0
  9 25  1  0  0  0  0
 10 19  1  0  0  0  0
 10 20  2  0  0  0  0
 11 17  1  0  0  0  0
 11 26  1  0  0  0  0
 12 16  1  0  0  0  0
 13 16  1  0  0  0  0
 14 19  1  0  0  0  0
 14 27  1  0  0  0  0
 14 28  1  0  0  0  0
 14 29  1  0  0  0  0
 21 30  1  0  0  0  0
 21 34  1  0  0  0  0
 32 33  1  0  0  0  0
 32 37  1  0  0  0  0
 32 38  1  0  0  0  0
 32 46  1  0  0  0  0
 33 34  1  0  0  0  0
 33 39  1  0  0  0  0
 33 40  1  0  0  0  0
 34 35  1  0  0  0  0
 34 41  1  0  0  0  0
 35 36  1  0  0  0  0
 35 42  1  0  0  0  0
 35 43  1  0  0  0  0
 36 44  1  0  0  0  0
 36 45  1  0  0  0  0
 36 46  1  0  0  0  0
 46 47  2  0  0  0  0
 46 48  2  0  0  0  0
M  END
$$$$
