18629-1
 OpenBabel02232411163D
Structure written by MMmdl.
 41 42  0  0  0  0  0  0  0  0999 V2000
   23.8280   12.6060   30.3410 C   0  0  0  0  0  0  0  0  0  0  0  0
   23.3900   11.1580   30.4500 C   0  0  0  0  0  0  0  0  0  0  0  0
   22.1460   11.2480   31.2590 O   0  0  0  0  0  0  0  0  0  0  0  0
   21.5120   10.1080   31.6020 C   0  0  0  0  0  0  0  0  0  0  0  0
   21.9870    8.9180   31.1620 N   0  0  0  0  0  0  0  0  0  0  0  0
   21.2600    7.7820   31.4910 C   0  0  0  0  0  0  0  0  0  0  0  0
   20.1120    7.8240   32.2740 C   0  0  0  0  0  0  0  0  0  0  0  0
   19.6240    9.0760   32.7330 C   0  0  0  0  0  0  0  0  0  0  0  0
   18.4770    9.1230   33.4850 N   0  0  0  0  0  0  0  0  0  0  0  0
   20.3300   10.2710   32.3860 C   0  0  0  0  0  0  0  0  0  0  0  0
   19.9110   11.5720   32.7340 C   0  0  0  0  0  0  0  0  0  0  0  0
   19.6120   12.6660   32.9790 N   0  0  0  0  0  0  0  0  0  0  0  0
   21.8160    6.6130   30.9180 N   0  0  0  0  0  0  0  0  0  0  0  0
   21.2310    5.3230   30.9110 C   0  0  0  0  0  0  0  0  0  0  0  0
   20.1850    5.0830   31.4770 O   0  0  0  0  0  0  0  0  0  0  0  0
   21.9720    4.2970   30.0710 C   0  0  0  0  0  0  0  0  0  0  0  0
   23.4520    4.2270   30.3430 C   0  0  0  0  0  0  0  0  0  0  0  0
   24.3500    4.9900   29.5840 C   0  0  0  0  0  0  0  0  0  0  0  0
   25.7290    4.9370   29.8480 C   0  0  0  0  0  0  0  0  0  0  0  0
   26.6770    5.7470   29.0260 C   0  0  0  0  0  0  0  0  0  0  0  0
   26.2020    4.1080   30.8780 C   0  0  0  0  0  0  0  0  0  0  0  0
   25.3070    3.3390   31.6240 C   0  0  0  0  0  0  0  0  0  0  0  0
   23.9350    3.3900   31.3590 C   0  0  0  0  0  0  0  0  0  0  0  0
   24.7310   12.6590   29.6820 H   0  0  0  0  0  0  0  0  0  0  0  0
   23.0270   13.2330   29.8810 H   0  0  0  0  0  0  0  0  0  0  0  0
   24.0870   13.0300   31.3370 H   0  0  0  0  0  0  0  0  0  0  0  0
   23.1190   10.7200   29.4640 H   0  0  0  0  0  0  0  0  0  0  0  0
   24.1210   10.5300   31.0050 H   0  0  0  0  0  0  0  0  0  0  0  0
   19.5640    6.9130   32.5280 H   0  0  0  0  0  0  0  0  0  0  0  0
   17.9760    8.2530   33.7490 H   0  0  0  0  0  0  0  0  0  0  0  0
   18.0750   10.0100   33.7870 H   0  0  0  0  0  0  0  0  0  0  0  0
   22.7120    6.7530   30.4100 H   0  0  0  0  0  0  0  0  0  0  0  0
   21.5240    3.2860   30.2710 H   0  0  0  0  0  0  0  0  0  0  0  0
   21.7820    4.5540   28.9970 H   0  0  0  0  0  0  0  0  0  0  0  0
   23.9940    5.6370   28.7820 H   0  0  0  0  0  0  0  0  0  0  0  0
   26.2730    6.7730   28.8390 H   0  0  0  0  0  0  0  0  0  0  0  0
   27.6700    5.8580   29.5270 H   0  0  0  0  0  0  0  0  0  0  0  0
   26.8460    5.2540   28.0360 H   0  0  0  0  0  0  0  0  0  0  0  0
   27.2720    4.0590   31.0960 H   0  0  0  0  0  0  0  0  0  0  0  0
   25.6830    2.6880   32.4200 H   0  0  0  0  0  0  0  0  0  0  0  0
   23.2550    2.7650   31.9390 H   0  0  0  0  0  0  0  0  0  0  0  0
  1  2  1  0  0  0  0
  1 24  1  0  0  0  0
  1 25  1  0  0  0  0
  1 26  1  0  0  0  0
  2  3  1  0  0  0  0
  2 27  1  0  0  0  0
  2 28  1  0  0  0  0
  3  4  1  0  0  0  0
  4 10  2  0  0  0  0
  4  5  1  0  0  0  0
  5  6  2  0  0  0  0
  6  7  1  0  0  0  0
  6 13  1  0  0  0  0
  7  8  2  0  0  0  0
  7 29  1  0  0  0  0
  8  9  1  0  0  0  0
  8 10  1  0  0  0  0
  9 30  1  0  0  0  0
  9 31  1  0  0  0  0
 10 11  1  0  0  0  0
 11 12  3  0  0  0  0
 13 14  1  0  0  0  0
 13 32  1  0  0  0  0
 14 15  2  0  0  0  0
 14 16  1  0  0  0  0
 16 17  1  0  0  0  0
 16 33  1  0  0  0  0
 16 34  1  0  0  0  0
 17 23  2  0  0  0  0
 17 18  1  0  0  0  0
 18 19  2  0  0  0  0
 18 35  1  0  0  0  0
 19 20  1  0  0  0  0
 19 21  1  0  0  0  0
 20 36  1  0  0  0  0
 20 37  1  0  0  0  0
 20 38  1  0  0  0  0
 21 22  2  0  0  0  0
 21 39  1  0  0  0  0
 22 23  1  0  0  0  0
 22 40  1  0  0  0  0
 23 41  1  0  0  0  0
M  END
$$$$
