18634-1
 OpenBabel02232411163D
Structure written by MMmdl.
 46 47  0  0  0  0  0  0  0  0999 V2000
   24.4560   10.8210   30.7780 C   0  0  0  0  0  0  0  0  0  0  0  0
   23.1350   11.1980   30.1390 C   0  0  0  0  0  0  0  0  0  0  0  0
   22.0560   11.2530   31.1460 O   0  0  0  0  0  0  0  0  0  0  0  0
   21.4580   10.1040   31.5390 C   0  0  0  0  0  0  0  0  0  0  0  0
   21.9230    8.9160   31.0900 N   0  0  0  0  0  0  0  0  0  0  0  0
   21.2220    7.7730   31.4510 C   0  0  0  0  0  0  0  0  0  0  0  0
   20.0910    7.8100   32.2620 C   0  0  0  0  0  0  0  0  0  0  0  0
   19.6140    9.0630   32.7320 C   0  0  0  0  0  0  0  0  0  0  0  0
   18.4790    9.1100   33.5020 N   0  0  0  0  0  0  0  0  0  0  0  0
   20.3110   10.2610   32.3730 C   0  0  0  0  0  0  0  0  0  0  0  0
   19.9070   11.5590   32.7490 C   0  0  0  0  0  0  0  0  0  0  0  0
   19.6230   12.6510   33.0160 N   0  0  0  0  0  0  0  0  0  0  0  0
   21.7940    6.6160   30.8830 N   0  0  0  0  0  0  0  0  0  0  0  0
   21.2470    5.3100   30.8680 C   0  0  0  0  0  0  0  0  0  0  0  0
   20.1960    5.0320   31.4030 O   0  0  0  0  0  0  0  0  0  0  0  0
   22.0760    4.3250   30.0540 C   0  0  0  0  0  0  0  0  0  0  0  0
   23.4330    4.0760   30.6450 C   0  0  0  0  0  0  0  0  0  0  0  0
   24.5270    4.9390   30.3430 C   0  0  0  0  0  0  0  0  0  0  0  0
   24.1810    5.9780   29.4840 O   0  0  0  0  0  0  0  0  0  0  0  0
   25.1380    7.0600   29.3260 C   0  0  0  0  0  0  0  0  0  0  0  0
   25.7990    4.7150   30.8570 C   0  0  0  0  0  0  0  0  0  0  0  0
   26.0180    3.6290   31.7170 C   0  0  0  0  0  0  0  0  0  0  0  0
   24.9520    2.7860   32.0250 C   0  0  0  0  0  0  0  0  0  0  0  0
   23.6610    2.9910   31.4800 C   0  0  0  0  0  0  0  0  0  0  0  0
   24.9980    1.6870   32.8590 O   0  0  0  0  0  0  0  0  0  0  0  0
   26.2720    1.3640   33.4740 C   0  0  0  0  0  0  0  0  0  0  0  0
   24.4020    9.8140   31.2550 H   0  0  0  0  0  0  0  0  0  0  0  0
   24.7580   11.5670   31.5430 H   0  0  0  0  0  0  0  0  0  0  0  0
   25.2490   10.7810   29.9900 H   0  0  0  0  0  0  0  0  0  0  0  0
   23.1210   12.2610   29.7980 H   0  0  0  0  0  0  0  0  0  0  0  0
   22.8470   10.4960   29.3250 H   0  0  0  0  0  0  0  0  0  0  0  0
   19.5540    6.8970   32.5260 H   0  0  0  0  0  0  0  0  0  0  0  0
   18.0830    9.9970   33.8110 H   0  0  0  0  0  0  0  0  0  0  0  0
   17.9800    8.2410   33.7730 H   0  0  0  0  0  0  0  0  0  0  0  0
   22.6980    6.7760   30.3680 H   0  0  0  0  0  0  0  0  0  0  0  0
   21.5130    3.3590   29.9800 H   0  0  0  0  0  0  0  0  0  0  0  0
   22.2000    4.7440   29.0160 H   0  0  0  0  0  0  0  0  0  0  0  0
   25.9980    6.7010   28.7210 H   0  0  0  0  0  0  0  0  0  0  0  0
   24.5330    7.8160   28.7740 H   0  0  0  0  0  0  0  0  0  0  0  0
   25.4590    7.4490   30.3160 H   0  0  0  0  0  0  0  0  0  0  0  0
   26.6440    5.3610   30.6060 H   0  0  0  0  0  0  0  0  0  0  0  0
   27.0230    3.4730   32.1160 H   0  0  0  0  0  0  0  0  0  0  0  0
   22.8660    2.2810   31.7250 H   0  0  0  0  0  0  0  0  0  0  0  0
   27.0280    1.1270   32.6930 H   0  0  0  0  0  0  0  0  0  0  0  0
   26.6050    2.1960   34.1310 H   0  0  0  0  0  0  0  0  0  0  0  0
   26.0140    0.4570   34.0700 H   0  0  0  0  0  0  0  0  0  0  0  0
  1  2  1  0  0  0  0
  1 27  1  0  0  0  0
  1 28  1  0  0  0  0
  1 29  1  0  0  0  0
  2  3  1  0  0  0  0
  2 30  1  0  0  0  0
  2 31  1  0  0  0  0
  3  4  1  0  0  0  0
  4 10  2  0  0  0  0
  4  5  1  0  0  0  0
  5  6  2  0  0  0  0
  6  7  1  0  0  0  0
  6 13  1  0  0  0  0
  7  8  2  0  0  0  0
  7 32  1  0  0  0  0
  8  9  1  0  0  0  0
  8 10  1  0  0  0  0
  9 33  1  0  0  0  0
  9 34  1  0  0  0  0
 10 11  1  0  0  0  0
 11 12  3  0  0  0  0
 13 14  1  0  0  0  0
 13 35  1  0  0  0  0
 14 15  2  0  0  0  0
 14 16  1  0  0  0  0
 16 17  1  0  0  0  0
 16 36  1  0  0  0  0
 16 37  1  0  0  0  0
 17 24  2  0  0  0  0
 17 18  1  0  0  0  0
 18 19  1  0  0  0  0
 18 21  2  0  0  0  0
 19 20  1  0  0  0  0
 20 38  1  0  0  0  0
 20 39  1  0  0  0  0
 20 40  1  0  0  0  0
 21 22  1  0  0  0  0
 21 41  1  0  0  0  0
 22 23  2  0  0  0  0
 22 42  1  0  0  0  0
 23 24  1  0  0  0  0
 23 25  1  0  0  0  0
 24 43  1  0  0  0  0
 25 26  1  0  0  0  0
 26 44  1  0  0  0  0
 26 45  1  0  0  0  0
 26 46  1  0  0  0  0
M  END
$$$$
