2o
                    3D
 Schrodinger Suite 2022-3.
 55 58  0  0  1  0  0  0  0  0999 V2000
   27.2380    8.7020   30.5390 C   0  0  0  0  0  0  0  0  0  0  0  0
   28.6150    9.2450   30.9410 C   0  0  0  0  0  0  0  0  0  0  0  0
   28.5510    8.0640   33.0560 C   0  0  0  0  0  0  0  0  0  0  0  0
   27.1820    7.4520   32.7330 C   0  0  0  0  0  0  0  0  0  0  0  0
   16.0270   10.5920   31.7010 C   0  0  0  0  0  0  0  0  0  0  0  0
   29.3000    8.3620   31.8580 O   0  0  0  0  0  0  0  0  0  0  0  0
   21.4320   12.5420   31.3810 C   0  0  0  0  0  0  0  0  0  0  0  0
   17.3250   11.0820   31.8160 C   0  0  0  0  0  0  0  0  0  0  0  0
   23.9780    8.4420   31.1310 C   0  0  0  0  0  0  0  0  0  0  0  0
   26.4020    8.4030   31.8030 C   0  0  0  0  0  0  0  0  0  0  0  0
   21.5840    9.7430   30.7540 C   0  0  0  0  0  0  0  0  0  0  0  0
   20.3200   10.4170   30.6540 C   0  0  0  0  0  0  0  0  0  0  0  0
   15.3370   10.9070   30.5230 C   0  0  0  0  0  0  0  0  0  0  0  0
   15.8860   11.6800   29.4970 C   0  0  0  0  0  0  0  0  0  0  0  0
   17.1860   12.1760   29.6440 C   0  0  0  0  0  0  0  0  0  0  0  0
   22.7260   10.4280   31.2610 C   0  0  0  0  0  0  0  0  0  0  0  0
   21.7550    8.3790   30.3870 C   0  0  0  0  0  0  0  0  0  0  0  0
   20.2560   11.7260   30.9880 C   0  0  0  0  0  0  0  0  0  0  0  0
   17.8980   11.8890   30.8120 C   0  0  0  0  0  0  0  0  0  0  0  0
   23.8310   12.5010   32.2050 C   0  0  0  0  0  0  0  0  0  0  0  0
   18.0470   10.7790   32.8870 F   0  0  0  0  0  0  0  0  0  0  0  0
   14.1080   10.4200   30.3680 F   0  0  0  0  0  0  0  0  0  0  0  0
   19.1240   12.5370   31.0190 O   0  0  0  0  0  0  0  0  0  0  0  0
   22.9080    7.7210   30.5600 N   0  0  0  0  0  0  0  0  0  0  0  0
   21.4300   13.7410   31.5650 O   0  0  0  0  0  0  0  0  0  0  0  0
   22.6480   11.7960   31.5900 N   0  0  0  0  0  0  0  0  0  0  0  0
   23.9220    9.7860   31.4460 N   0  0  0  0  0  0  0  0  0  0  0  0
   25.1160    7.7350   31.4340 N   0  0  0  0  0  0  0  0  0  0  0  0
   15.3270   11.8880   28.5830 H   0  0  0  0  0  0  0  0  0  0  0  0
   17.6380   12.7760   28.8480 H   0  0  0  0  0  0  0  0  0  0  0  0
   15.5850    9.9630   32.4760 H   0  0  0  0  0  0  0  0  0  0  0  0
   19.4520    9.8450   30.3180 H   0  0  0  0  0  0  0  0  0  0  0  0
   20.9170    7.8240   29.9340 H   0  0  0  0  0  0  0  0  0  0  0  0
   27.3540    7.7610   29.9490 H   0  0  0  0  0  0  0  0  0  0  0  0
   26.7160    9.4530   29.9010 H   0  0  0  0  0  0  0  0  0  0  0  0
   28.5230   10.2490   31.4110 H   0  0  0  0  0  0  0  0  0  0  0  0
   29.3150    9.2620   30.0750 H   0  0  0  0  0  0  0  0  0  0  0  0
   29.2080    7.3230   33.5690 H   0  0  0  0  0  0  0  0  0  0  0  0
   28.4370    8.9950   33.6560 H   0  0  0  0  0  0  0  0  0  0  0  0
   26.6110    7.2830   33.6780 H   0  0  0  0  0  0  0  0  0  0  0  0
   27.3180    6.4600   32.2330 H   0  0  0  0  0  0  0  0  0  0  0  0
   26.1690    9.3590   32.3470 H   0  0  0  0  0  0  0  0  0  0  0  0
   23.4270   13.4170   32.7190 H   0  0  0  0  0  0  0  0  0  0  0  0
   24.2860   11.7980   32.9610 H   0  0  0  0  0  0  0  0  0  0  0  0
   25.2140    6.7650   31.0670 H   0  0  0  0  0  0  0  0  0  0  0  0
   24.8830   12.8930   31.1650 C   0  0  0  0  0  0  0  0  0  0  0  0
   25.3620   11.9540   30.7610 H   0  0  0  0  0  0  0  0  0  0  0  0
   24.3840   13.3690   30.2770 H   0  0  0  0  0  0  0  0  0  0  0  0
   26.1360   13.9820   31.7860 S   0  0  0  0  0  0  0  0  0  0  0  0
   27.4250   13.7380   31.1140 O   0  0  0  0  0  0  0  0  0  0  0  0
   26.2450   13.8360   33.2510 O   0  0  0  0  0  0  0  0  0  0  0  0
   25.5700   15.5760   31.3920 C   0  0  0  0  0  0  0  0  0  0  0  0
   24.6860   15.8870   32.0020 H   0  0  0  0  0  0  0  0  0  0  0  0
   26.3580   16.3560   31.5720 H   0  0  0  0  0  0  0  0  0  0  0  0
   25.2820   15.6730   30.3120 H   0  0  0  0  0  0  0  0  0  0  0  0
  1  2  1  0  0  0  0
  1 10  1  0  0  0  0
  1 34  1  0  0  0  0
  1 35  1  0  0  0  0
  2  6  1  0  0  0  0
  2 36  1  0  0  0  0
  2 37  1  0  0  0  0
  3  4  1  0  0  0  0
  3  6  1  0  0  0  0
  3 38  1  0  0  0  0
  3 39  1  0  0  0  0
  4 10  1  0  0  0  0
  4 40  1  0  0  0  0
  4 41  1  0  0  0  0
  5  8  1  0  0  0  0
  5 13  2  0  0  0  0
  5 31  1  0  0  0  0
  7 18  1  0  0  0  0
  7 25  2  0  0  0  0
  7 26  1  0  0  0  0
  8 19  2  0  0  0  0
  8 21  1  0  0  0  0
  9 24  1  0  0  0  0
  9 27  2  0  0  0  0
  9 28  1  0  0  0  0
 10 28  1  0  0  0  0
 10 42  1  0  0  0  0
 11 12  1  0  0  0  0
 11 16  2  0  0  0  0
 11 17  1  0  0  0  0
 12 18  2  0  0  0  0
 12 32  1  0  0  0  0
 13 14  1  0  0  0  0
 13 22  1  0  0  0  0
 14 15  2  0  0  0  0
 14 29  1  0  0  0  0
 15 19  1  0  0  0  0
 15 30  1  0  0  0  0
 16 26  1  0  0  0  0
 16 27  1  0  0  0  0
 17 24  2  0  0  0  0
 17 33  1  0  0  0  0
 18 23  1  0  0  0  0
 19 23  1  0  0  0  0
 20 26  1  0  0  0  0
 20 43  1  0  0  0  0
 20 44  1  0  0  0  0
 20 46  1  0  0  0  0
 28 45  1  0  0  0  0
 46 47  1  0  0  0  0
 46 48  1  0  0  0  0
 46 49  1  0  0  0  0
 49 50  2  0  0  0  0
 49 51  2  0  0  0  0
 49 52  1  0  0  0  0
 52 53  1  0  0  0  0
 52 54  1  0  0  0  0
 52 55  1  0  0  0  0
M  END
$$$$
