p38a_2s
 OpenBabel02232411163D
Structure written by MMmdl.
 54 57  0  0  1  0  0  0  0  0999 V2000
   36.3280   35.9310   15.9640 C   0  0  0  0  0  0  0  0  0  0  0  0
   34.5730   35.0630   21.5780 C   0  0  0  0  0  0  0  0  0  0  0  0
   35.6350   35.5030   17.0930 C   0  0  0  0  0  0  0  0  0  0  0  0
   34.1930   39.2000   24.0500 C   0  0  0  0  0  0  0  0  0  0  0  0
   34.7950   37.9210   21.6790 C   0  0  0  0  0  0  0  0  0  0  0  0
   35.1730   37.2300   20.4760 C   0  0  0  0  0  0  0  0  0  0  0  0
   37.6230   36.4220   16.1760 C   0  0  0  0  0  0  0  0  0  0  0  0
   38.2390   36.4570   17.4300 C   0  0  0  0  0  0  0  0  0  0  0  0
   37.5100   36.0490   18.5530 C   0  0  0  0  0  0  0  0  0  0  0  0
   34.4610   37.1860   22.8520 C   0  0  0  0  0  0  0  0  0  0  0  0
   34.7500   39.3400   21.7760 C   0  0  0  0  0  0  0  0  0  0  0  0
   35.1040   35.8790   20.4550 C   0  0  0  0  0  0  0  0  0  0  0  0
   36.2060   35.5770   18.3800 C   0  0  0  0  0  0  0  0  0  0  0  0
   34.4140   34.9960   16.9800 F   0  0  0  0  0  0  0  0  0  0  0  0
   35.4350   35.0200   19.4090 O   0  0  0  0  0  0  0  0  0  0  0  0
   34.4560   39.9880   22.9110 N   0  0  0  0  0  0  0  0  0  0  0  0
   34.2930   33.8830   21.5110 O   0  0  0  0  0  0  0  0  0  0  0  0
   34.3750   35.7800   22.8110 N   0  0  0  0  0  0  0  0  0  0  0  0
   34.1850   37.8170   24.0390 N   0  0  0  0  0  0  0  0  0  0  0  0
   33.8390   39.8500   25.2070 N   0  0  0  0  0  0  0  0  0  0  0  0
   35.8790   35.9100   14.9670 H   0  0  0  0  0  0  0  0  0  0  0  0
   35.5150   37.8250   19.6260 H   0  0  0  0  0  0  0  0  0  0  0  0
   39.2630   36.8240   17.5390 H   0  0  0  0  0  0  0  0  0  0  0  0
   37.9540   36.1250   19.5480 H   0  0  0  0  0  0  0  0  0  0  0  0
   34.9610   39.9540   20.8830 H   0  0  0  0  0  0  0  0  0  0  0  0
   33.9170   40.8880   25.2420 H   0  0  0  0  0  0  0  0  0  0  0  0
   38.2840   36.9120   15.1300 F   0  0  0  0  0  0  0  0  0  0  0  0
   32.8380   39.3560   28.8600 C   0  0  0  0  0  0  0  0  0  0  0  0
   32.8190   39.9460   27.4440 C   0  0  0  0  0  0  0  0  0  0  0  0
   33.8050   39.1750   26.5420 C   0  0  0  0  0  0  0  0  0  0  0  0
   35.2110   39.1520   27.1800 C   0  0  0  0  0  0  0  0  0  0  0  0
   35.1160   38.5920   28.6060 C   0  0  0  0  0  0  0  0  0  0  0  0
   34.1750   39.3360   29.4110 O   0  0  0  0  0  0  0  0  0  0  0  0
   32.4270   38.3210   28.8690 H   0  0  0  0  0  0  0  0  0  0  0  0
   32.2980   40.0200   29.5750 H   0  0  0  0  0  0  0  0  0  0  0  0
   33.1110   41.0230   27.4910 H   0  0  0  0  0  0  0  0  0  0  0  0
   31.7890   39.8810   27.0210 H   0  0  0  0  0  0  0  0  0  0  0  0
   33.4460   38.1190   26.4110 H   0  0  0  0  0  0  0  0  0  0  0  0
   35.8900   38.5060   26.5750 H   0  0  0  0  0  0  0  0  0  0  0  0
   35.6330   40.1850   27.2050 H   0  0  0  0  0  0  0  0  0  0  0  0
   34.8120   37.5190   28.5920 H   0  0  0  0  0  0  0  0  0  0  0  0
   36.0710   38.7400   29.1600 H   0  0  0  0  0  0  0  0  0  0  0  0
   34.0770   35.0170   24.0650 C   0  0  0  0  0  0  0  0  0  0  0  0
   34.7040   34.0790   24.0610 H   0  0  0  0  0  0  0  0  0  0  0  0
   34.4060   35.6330   24.9520 H   0  0  0  0  0  0  0  0  0  0  0  0
   32.5910   34.6260   24.2570 C   0  0  2  0  0  0  0  0  0  0  0  0
   32.2600   33.4300   23.5450 O   0  0  0  0  0  0  0  0  0  0  0  0
   32.7360   33.4110   22.6740 H   0  0  0  0  0  0  0  0  0  0  0  0
   31.5580   35.7050   23.8550 C   0  0  0  0  0  0  0  0  0  0  0  0
   30.5290   35.2660   23.8440 H   0  0  0  0  0  0  0  0  0  0  0  0
   31.8080   36.1760   22.8830 H   0  0  0  0  0  0  0  0  0  0  0  0
   32.4430   34.3370   25.3330 H   0  0  0  0  0  0  0  0  0  0  0  0
   31.4680   36.7240   24.8550 O   0  0  0  0  0  0  0  0  0  0  0  0
   32.3210   37.2190   24.8910 H   0  0  0  0  0  0  0  0  0  0  0  0
  1  3  2  0  0  0  0
  1  7  1  0  0  0  0
  1 21  1  0  0  0  0
  2 12  1  0  0  0  0
  2 17  2  0  0  0  0
  2 18  1  0  0  0  0
  3 13  1  0  0  0  0
  3 14  1  0  0  0  0
  4 16  2  0  0  0  0
  4 19  1  0  0  0  0
  4 20  1  0  0  0  0
  5  6  1  0  0  0  0
  5 10  1  0  0  0  0
  5 11  2  0  0  0  0
  6 12  2  0  0  0  0
  6 22  1  0  0  0  0
  7  8  2  0  0  0  0
  7 27  1  0  0  0  0
  8  9  1  0  0  0  0
  8 23  1  0  0  0  0
  9 13  2  0  0  0  0
  9 24  1  0  0  0  0
 10 18  1  0  0  0  0
 10 19  2  0  0  0  0
 11 16  1  0  0  0  0
 11 25  1  0  0  0  0
 12 15  1  0  0  0  0
 13 15  1  0  0  0  0
 18 43  1  0  0  0  0
 20 26  1  0  0  0  0
 20 30  1  0  0  0  0
 28 29  1  0  0  0  0
 28 33  1  0  0  0  0
 28 34  1  0  0  0  0
 28 35  1  0  0  0  0
 29 30  1  0  0  0  0
 29 36  1  0  0  0  0
 29 37  1  0  0  0  0
 30 31  1  0  0  0  0
 30 38  1  0  0  0  0
 31 32  1  0  0  0  0
 31 39  1  0  0  0  0
 31 40  1  0  0  0  0
 32 33  1  0  0  0  0
 32 41  1  0  0  0  0
 32 42  1  0  0  0  0
 43 44  1  0  0  0  0
 43 45  1  0  0  0  0
 43 46  1  0  0  0  0
 46 47  1  0  0  0  0
 46 49  1  0  0  0  0
 46 52  1  1  0  0  0
 47 48  1  0  0  0  0
 49 50  1  0  0  0  0
 49 51  1  0  0  0  0
 49 53  1  0  0  0  0
 53 54  1  0  0  0  0
M  END
$$$$
