18636-1
 OpenBabel02232411163D
Structure written by MMmdl.
 38 39  0  0  0  0  0  0  0  0999 V2000
   23.8060   12.6740   30.3500 C   0  0  0  0  0  0  0  0  0  0  0  0
   23.3840   11.2200   30.4290 C   0  0  0  0  0  0  0  0  0  0  0  0
   22.1520   11.2760   31.2600 O   0  0  0  0  0  0  0  0  0  0  0  0
   21.5380   10.1220   31.5860 C   0  0  0  0  0  0  0  0  0  0  0  0
   22.0320    8.9460   31.1300 N   0  0  0  0  0  0  0  0  0  0  0  0
   21.3250    7.7930   31.4380 C   0  0  0  0  0  0  0  0  0  0  0  0
   20.1720    7.8000   32.2160 C   0  0  0  0  0  0  0  0  0  0  0  0
   19.6640    9.0380   32.6970 C   0  0  0  0  0  0  0  0  0  0  0  0
   18.5150    9.0620   33.4450 N   0  0  0  0  0  0  0  0  0  0  0  0
   20.3540   10.2490   32.3740 C   0  0  0  0  0  0  0  0  0  0  0  0
   19.9180   11.5390   32.7460 C   0  0  0  0  0  0  0  0  0  0  0  0
   19.6100   12.6260   33.0070 N   0  0  0  0  0  0  0  0  0  0  0  0
   21.9160    6.6500   30.8430 N   0  0  0  0  0  0  0  0  0  0  0  0
   21.3830    5.3410   30.7940 C   0  0  0  0  0  0  0  0  0  0  0  0
   20.3770    5.0130   31.3860 O   0  0  0  0  0  0  0  0  0  0  0  0
   22.1750    4.4030   29.8860 C   0  0  0  0  0  0  0  0  0  0  0  0
   23.4020    3.8660   30.5610 C   0  0  0  0  0  0  0  0  0  0  0  0
   24.6880    4.3900   30.3490 C   0  0  0  0  0  0  0  0  0  0  0  0
   25.0200    5.7270   29.0200 Br  0  0  0  0  0  0  0  0  0  0  0  0
   25.7990    3.9180   31.0560 C   0  0  0  0  0  0  0  0  0  0  0  0
   25.6490    2.8730   31.9700 C   0  0  0  0  0  0  0  0  0  0  0  0
   24.3840    2.3040   32.1370 C   0  0  0  0  0  0  0  0  0  0  0  0
   24.1790    0.8250   33.3260 Br  0  0  0  0  0  0  0  0  0  0  0  0
   23.2700    2.7830   31.4490 C   0  0  0  0  0  0  0  0  0  0  0  0
   24.7060   12.7500   29.6880 H   0  0  0  0  0  0  0  0  0  0  0  0
   22.9970   13.3020   29.9060 H   0  0  0  0  0  0  0  0  0  0  0  0
   24.0650   13.0790   31.3530 H   0  0  0  0  0  0  0  0  0  0  0  0
   23.0990   10.8030   29.4370 H   0  0  0  0  0  0  0  0  0  0  0  0
   24.1310   10.5840   30.9540 H   0  0  0  0  0  0  0  0  0  0  0  0
   19.6390    6.8760   32.4460 H   0  0  0  0  0  0  0  0  0  0  0  0
   18.0200    8.1870   33.7040 H   0  0  0  0  0  0  0  0  0  0  0  0
   18.1050    9.9430   33.7590 H   0  0  0  0  0  0  0  0  0  0  0  0
   22.7960    6.8450   30.3150 H   0  0  0  0  0  0  0  0  0  0  0  0
   21.5000    3.5520   29.5980 H   0  0  0  0  0  0  0  0  0  0  0  0
   22.4390    4.9470   28.9370 H   0  0  0  0  0  0  0  0  0  0  0  0
   26.7950    4.3540   30.8930 H   0  0  0  0  0  0  0  0  0  0  0  0
   26.5210    2.5050   32.5270 H   0  0  0  0  0  0  0  0  0  0  0  0
   22.2940    2.3060   31.5910 H   0  0  0  0  0  0  0  0  0  0  0  0
  1  2  1  0  0  0  0
  1 25  1  0  0  0  0
  1 26  1  0  0  0  0
  1 27  1  0  0  0  0
  2  3  1  0  0  0  0
  2 28  1  0  0  0  0
  2 29  1  0  0  0  0
  3  4  1  0  0  0  0
  4 10  2  0  0  0  0
  4  5  1  0  0  0  0
  5  6  2  0  0  0  0
  6  7  1  0  0  0  0
  6 13  1  0  0  0  0
  7  8  2  0  0  0  0
  7 30  1  0  0  0  0
  8  9  1  0  0  0  0
  8 10  1  0  0  0  0
  9 31  1  0  0  0  0
  9 32  1  0  0  0  0
 10 11  1  0  0  0  0
 11 12  3  0  0  0  0
 13 14  1  0  0  0  0
 13 33  1  0  0  0  0
 14 15  2  0  0  0  0
 14 16  1  0  0  0  0
 16 17  1  0  0  0  0
 16 34  1  0  0  0  0
 16 35  1  0  0  0  0
 17 24  2  0  0  0  0
 17 18  1  0  0  0  0
 18 19  1  0  0  0  0
 18 20  2  0  0  0  0
 20 21  1  0  0  0  0
 20 36  1  0  0  0  0
 21 22  2  0  0  0  0
 21 37  1  0  0  0  0
 22 23  1  0  0  0  0
 22 24  1  0  0  0  0
 24 38  1  0  0  0  0
M  END
$$$$
