1h1r
 OpenBabel02232411153D
Structure written by MMmdl.
 45 48  0  0  0  0  0  0  0  0999 V2000
    1.8530   28.9150    6.7450 C   0  0  0  0  0  0  0  0  0  0  0  0
   -1.6140   31.4990    7.9730 C   0  0  0  0  0  0  0  0  0  0  0  0
   -0.1110   26.0250    8.8770 C   0  0  0  0  0  0  0  0  0  0  0  0
   -0.9110   25.3320    9.9880 C   0  0  0  0  0  0  0  0  0  0  0  0
   -0.7020   23.8090    9.8280 C   0  0  0  0  0  0  0  0  0  0  0  0
   -1.3720   23.0300   10.9680 C   0  0  0  0  0  0  0  0  0  0  0  0
   -0.9050   23.5230   12.3460 C   0  0  0  0  0  0  0  0  0  0  0  0
   -1.1380   25.0330   12.5060 C   0  0  0  0  0  0  0  0  0  0  0  0
   -0.4640   25.8270   11.3770 C   0  0  0  0  0  0  0  0  0  0  0  0
    5.3920   25.7490    5.4360 C   0  0  0  0  0  0  0  0  0  0  0  0
    5.2780   24.9370    6.5710 C   0  0  0  0  0  0  0  0  0  0  0  0
    4.4330   25.3620    7.5930 C   0  0  0  0  0  0  0  0  0  0  0  0
    3.6880   26.5400    7.5340 C   0  0  0  0  0  0  0  0  0  0  0  0
    1.1570   27.9560    7.4760 N   0  0  0  0  0  0  0  0  0  0  0  0
   -0.0340   28.2810    8.0420 C   0  0  0  0  0  0  0  0  0  0  0  0
   -0.7100   27.3810    8.7690 O   0  0  0  0  0  0  0  0  0  0  0  0
   -0.5650   29.5890    7.8840 C   0  0  0  0  0  0  0  0  0  0  0  0
   -1.7100   30.2280    8.3730 N   0  0  0  0  0  0  0  0  0  0  0  0
   -0.4100   31.7450    7.2230 N   0  0  0  0  0  0  0  0  0  0  0  0
    0.2560   30.5260    7.1350 C   0  0  0  0  0  0  0  0  0  0  0  0
    1.4450   30.2200    6.5220 N   0  0  0  0  0  0  0  0  0  0  0  0
    3.0610   28.5360    6.1700 N   0  0  0  0  0  0  0  0  0  0  0  0
    3.7770   27.3150    6.3670 C   0  0  0  0  0  0  0  0  0  0  0  0
    4.6580   26.9270    5.3310 C   0  0  0  0  0  0  0  0  0  0  0  0
   -2.3190   32.2980    8.1820 H   0  0  0  0  0  0  0  0  0  0  0  0
    0.9640   26.1230    9.1450 H   0  0  0  0  0  0  0  0  0  0  0  0
   -0.2580   25.5500    7.8870 H   0  0  0  0  0  0  0  0  0  0  0  0
   -1.9980   25.5600    9.8720 H   0  0  0  0  0  0  0  0  0  0  0  0
   -1.1350   23.4760    8.8590 H   0  0  0  0  0  0  0  0  0  0  0  0
    0.3920   23.5820    9.8330 H   0  0  0  0  0  0  0  0  0  0  0  0
   -2.4740   23.1590   10.8980 H   0  0  0  0  0  0  0  0  0  0  0  0
   -1.1310   21.9460   10.8680 H   0  0  0  0  0  0  0  0  0  0  0  0
   -1.4630   22.9770   13.1410 H   0  0  0  0  0  0  0  0  0  0  0  0
    0.1830   23.3090   12.4620 H   0  0  0  0  0  0  0  0  0  0  0  0
   -2.2320   25.2400   12.5180 H   0  0  0  0  0  0  0  0  0  0  0  0
   -0.7100   25.3650   13.4810 H   0  0  0  0  0  0  0  0  0  0  0  0
    0.6420   25.7120   11.4810 H   0  0  0  0  0  0  0  0  0  0  0  0
   -0.7200   26.9050   11.4860 H   0  0  0  0  0  0  0  0  0  0  0  0
    6.0650   25.4570    4.6230 H   0  0  0  0  0  0  0  0  0  0  0  0
    5.8430   24.0070    6.6370 H   0  0  0  0  0  0  0  0  0  0  0  0
    3.0520   26.8320    8.3740 H   0  0  0  0  0  0  0  0  0  0  0  0
   -0.1530   32.6300    6.7610 H   0  0  0  0  0  0  0  0  0  0  0  0
    3.5470   29.2190    5.5380 H   0  0  0  0  0  0  0  0  0  0  0  0
    4.7760   27.5510    4.4450 H   0  0  0  0  0  0  0  0  0  0  0  0
    4.3110   24.4090    9.0250 Cl  0  0  0  0  0  0  0  0  0  0  0  0
  1 14  2  0  0  0  0
  1 21  1  0  0  0  0
  1 22  1  0  0  0  0
  2 18  2  0  0  0  0
  2 19  1  0  0  0  0
  2 25  1  0  0  0  0
  3  4  1  0  0  0  0
  3 16  1  0  0  0  0
  3 26  1  0  0  0  0
  3 27  1  0  0  0  0
  4  5  1  0  0  0  0
  4  9  1  0  0  0  0
  4 28  1  0  0  0  0
  5  6  1  0  0  0  0
  5 29  1  0  0  0  0
  5 30  1  0  0  0  0
  6  7  1  0  0  0  0
  6 31  1  0  0  0  0
  6 32  1  0  0  0  0
  7  8  1  0  0  0  0
  7 33  1  0  0  0  0
  7 34  1  0  0  0  0
  8  9  1  0  0  0  0
  8 35  1  0  0  0  0
  8 36  1  0  0  0  0
  9 37  1  0  0  0  0
  9 38  1  0  0  0  0
 10 11  2  0  0  0  0
 10 24  1  0  0  0  0
 10 39  1  0  0  0  0
 11 12  1  0  0  0  0
 11 40  1  0  0  0  0
 12 13  2  0  0  0  0
 12 45  1  0  0  0  0
 13 23  1  0  0  0  0
 13 41  1  0  0  0  0
 14 15  1  0  0  0  0
 15 16  1  0  0  0  0
 15 17  2  0  0  0  0
 17 18  1  0  0  0  0
 17 20  1  0  0  0  0
 19 20  1  0  0  0  0
 19 42  1  0  0  0  0
 20 21  2  0  0  0  0
 22 23  1  0  0  0  0
 22 43  1  0  0  0  0
 23 24  2  0  0  0  0
 24 44  1  0  0  0  0
M  END
$$$$
