p38a_3flw
 OpenBabel02232411163D
Structure written by MMmdl.
 49 51  0  0  0  0  0  0  0  0999 V2000
   38.2860   36.5630   17.1310 C   0  0  0  0  0  0  0  0  0  0  0  0
   37.6580   36.7560   15.8940 C   0  0  0  0  0  0  0  0  0  0  0  0
   33.5060   37.5430   26.6080 C   0  0  0  0  0  0  0  0  0  0  0  0
   32.7370   36.8750   27.7590 C   0  0  0  0  0  0  0  0  0  0  0  0
   32.7110   39.8810   27.3290 C   0  0  0  0  0  0  0  0  0  0  0  0
   33.2770   34.8750   23.3200 C   0  0  0  0  0  0  0  0  0  0  0  0
   37.9920   35.9330   19.3810 F   0  0  0  0  0  0  0  0  0  0  0  0
   37.4810   36.1010   18.1690 C   0  0  0  0  0  0  0  0  0  0  0  0
   38.3780   37.2560   14.8930 F   0  0  0  0  0  0  0  0  0  0  0  0
   36.3060   36.4890   15.6650 C   0  0  0  0  0  0  0  0  0  0  0  0
   35.5210   36.0090   16.7190 C   0  0  0  0  0  0  0  0  0  0  0  0
   36.1160   35.8050   17.9670 C   0  0  0  0  0  0  0  0  0  0  0  0
   35.3780   35.1550   18.9640 O   0  0  0  0  0  0  0  0  0  0  0  0
   34.9610   35.9400   20.0360 C   0  0  0  0  0  0  0  0  0  0  0  0
   35.0320   37.2850   20.1610 C   0  0  0  0  0  0  0  0  0  0  0  0
   34.5730   37.8890   21.3830 C   0  0  0  0  0  0  0  0  0  0  0  0
   34.6440   39.2860   21.6340 C   0  0  0  0  0  0  0  0  0  0  0  0
   34.2930   39.8380   22.8040 N   0  0  0  0  0  0  0  0  0  0  0  0
   34.3820   35.0300   21.0600 C   0  0  0  0  0  0  0  0  0  0  0  0
   34.2990   33.8250   20.9630 O   0  0  0  0  0  0  0  0  0  0  0  0
   33.9000   35.6920   22.2430 N   0  0  0  0  0  0  0  0  0  0  0  0
   34.0290   37.0800   22.4230 C   0  0  0  0  0  0  0  0  0  0  0  0
   33.6350   37.6180   23.6240 N   0  0  0  0  0  0  0  0  0  0  0  0
   33.8200   38.9710   23.8140 C   0  0  0  0  0  0  0  0  0  0  0  0
   33.5990   39.5340   25.0540 N   0  0  0  0  0  0  0  0  0  0  0  0
   32.8430   38.8650   26.1700 C   0  0  0  0  0  0  0  0  0  0  0  0
   34.0470   40.3460   27.9300 C   0  0  0  0  0  0  0  0  0  0  0  0
   33.8450   41.0300   29.1810 O   0  0  0  0  0  0  0  0  0  0  0  0
   33.0520   35.4730   27.8390 O   0  0  0  0  0  0  0  0  0  0  0  0
   39.3430   36.8000   17.2840 H   0  0  0  0  0  0  0  0  0  0  0  0
   34.5660   37.7200   26.9000 H   0  0  0  0  0  0  0  0  0  0  0  0
   33.5100   36.8370   25.7380 H   0  0  0  0  0  0  0  0  0  0  0  0
   33.0640   37.2580   28.7530 H   0  0  0  0  0  0  0  0  0  0  0  0
   31.6340   36.9820   27.6250 H   0  0  0  0  0  0  0  0  0  0  0  0
   32.1570   40.7740   26.9550 H   0  0  0  0  0  0  0  0  0  0  0  0
   32.0900   39.4150   28.1330 H   0  0  0  0  0  0  0  0  0  0  0  0
   32.2770   35.3070   23.5970 H   0  0  0  0  0  0  0  0  0  0  0  0
   33.1300   33.8190   22.9690 H   0  0  0  0  0  0  0  0  0  0  0  0
   33.9330   34.8740   24.2300 H   0  0  0  0  0  0  0  0  0  0  0  0
   35.8510   36.6620   14.6880 H   0  0  0  0  0  0  0  0  0  0  0  0
   34.4560   35.8110   16.5610 H   0  0  0  0  0  0  0  0  0  0  0  0
   35.4310   37.9370   19.3820 H   0  0  0  0  0  0  0  0  0  0  0  0
   34.9980   39.9680   20.8430 H   0  0  0  0  0  0  0  0  0  0  0  0
   33.6320   40.5750   25.1210 H   0  0  0  0  0  0  0  0  0  0  0  0
   31.8020   38.6370   25.7970 H   0  0  0  0  0  0  0  0  0  0  0  0
   34.6940   39.4880   28.2200 H   0  0  0  0  0  0  0  0  0  0  0  0
   34.5680   41.0440   27.2360 H   0  0  0  0  0  0  0  0  0  0  0  0
   33.1760   41.7720   29.0290 H   0  0  0  0  0  0  0  0  0  0  0  0
   32.7870   35.0340   26.9900 H   0  0  0  0  0  0  0  0  0  0  0  0
  1  2  2  0  0  0  0
  1  8  1  0  0  0  0
  1 30  1  0  0  0  0
  2  9  1  0  0  0  0
  2 10  1  0  0  0  0
  3  4  1  0  0  0  0
  3 26  1  0  0  0  0
  3 31  1  0  0  0  0
  3 32  1  0  0  0  0
  4 29  1  0  0  0  0
  4 33  1  0  0  0  0
  4 34  1  0  0  0  0
  5 26  1  0  0  0  0
  5 27  1  0  0  0  0
  5 35  1  0  0  0  0
  5 36  1  0  0  0  0
  6 21  1  0  0  0  0
  6 37  1  0  0  0  0
  6 38  1  0  0  0  0
  6 39  1  0  0  0  0
  7  8  1  0  0  0  0
  8 12  2  0  0  0  0
 10 11  2  0  0  0  0
 10 40  1  0  0  0  0
 11 12  1  0  0  0  0
 11 41  1  0  0  0  0
 12 13  1  0  0  0  0
 13 14  1  0  0  0  0
 14 15  2  0  0  0  0
 14 19  1  0  0  0  0
 15 16  1  0  0  0  0
 15 42  1  0  0  0  0
 16 17  2  0  0  0  0
 16 22  1  0  0  0  0
 17 18  1  0  0  0  0
 17 43  1  0  0  0  0
 18 24  2  0  0  0  0
 19 20  2  0  0  0  0
 19 21  1  0  0  0  0
 21 22  1  0  0  0  0
 22 23  2  0  0  0  0
 23 24  1  0  0  0  0
 24 25  1  0  0  0  0
 25 26  1  0  0  0  0
 25 44  1  0  0  0  0
 26 45  1  0  0  0  0
 27 28  1  0  0  0  0
 27 46  1  0  0  0  0
 27 47  1  0  0  0  0
 28 48  1  0  0  0  0
 29 49  1  0  0  0  0
M  END
$$$$
