p38a_2r
 OpenBabel02232411163D
Structure written by MMmdl.
 56 59  0  0  0  0  0  0  0  0999 V2000
   36.3250   35.9460   15.9860 C   0  0  0  0  0  0  0  0  0  0  0  0
   34.3490   35.0820   21.4350 C   0  0  0  0  0  0  0  0  0  0  0  0
   35.6830   35.5070   17.1390 C   0  0  0  0  0  0  0  0  0  0  0  0
   33.5650   39.2750   23.7270 C   0  0  0  0  0  0  0  0  0  0  0  0
   34.6330   37.9380   21.5620 C   0  0  0  0  0  0  0  0  0  0  0  0
   35.2190   37.2240   20.4610 C   0  0  0  0  0  0  0  0  0  0  0  0
   37.6210   36.4530   16.1480 C   0  0  0  0  0  0  0  0  0  0  0  0
   38.2820   36.4970   17.3790 C   0  0  0  0  0  0  0  0  0  0  0  0
   37.6040   36.0760   18.5280 C   0  0  0  0  0  0  0  0  0  0  0  0
   33.9510   37.2400   22.6030 C   0  0  0  0  0  0  0  0  0  0  0  0
   34.7090   39.3520   21.6780 C   0  0  0  0  0  0  0  0  0  0  0  0
   35.0960   35.8780   20.4230 C   0  0  0  0  0  0  0  0  0  0  0  0
   36.3030   35.5800   18.4040 C   0  0  0  0  0  0  0  0  0  0  0  0
   34.4650   34.9850   17.0730 F   0  0  0  0  0  0  0  0  0  0  0  0
   35.6020   34.9980   19.4680 O   0  0  0  0  0  0  0  0  0  0  0  0
   34.2170   40.0270   22.7260 N   0  0  0  0  0  0  0  0  0  0  0  0
   34.1580   33.8870   21.3720 O   0  0  0  0  0  0  0  0  0  0  0  0
   33.8110   35.8420   22.5350 N   0  0  0  0  0  0  0  0  0  0  0  0
   33.4050   37.9100   23.6700 N   0  0  0  0  0  0  0  0  0  0  0  0
   33.0060   40.0120   24.7590 N   0  0  0  0  0  0  0  0  0  0  0  0
   35.8400   35.9200   15.0060 H   0  0  0  0  0  0  0  0  0  0  0  0
   35.7440   37.7990   19.6940 H   0  0  0  0  0  0  0  0  0  0  0  0
   39.3040   36.8800   17.4490 H   0  0  0  0  0  0  0  0  0  0  0  0
   38.0880   36.1550   19.5040 H   0  0  0  0  0  0  0  0  0  0  0  0
   35.1950   39.9390   20.8830 H   0  0  0  0  0  0  0  0  0  0  0  0
   33.3130   41.0070   24.8370 H   0  0  0  0  0  0  0  0  0  0  0  0
   38.2380   36.9480   15.0770 F   0  0  0  0  0  0  0  0  0  0  0  0
   33.4000   38.2780   28.1770 C   0  0  0  0  0  0  0  0  0  0  0  0
   33.8320   38.9490   26.8710 C   0  0  0  0  0  0  0  0  0  0  0  0
   32.6020   39.4630   26.0910 C   0  0  0  0  0  0  0  0  0  0  0  0
   31.5010   38.3950   25.9680 C   0  0  0  0  0  0  0  0  0  0  0  0
   31.2060   37.7640   27.3320 C   0  0  0  0  0  0  0  0  0  0  0  0
   32.4190   37.2460   27.9290 O   0  0  0  0  0  0  0  0  0  0  0  0
   32.9740   39.0220   28.8890 H   0  0  0  0  0  0  0  0  0  0  0  0
   34.2370   37.7050   28.6370 H   0  0  0  0  0  0  0  0  0  0  0  0
   34.4020   38.2190   26.2480 H   0  0  0  0  0  0  0  0  0  0  0  0
   34.5090   39.8080   27.1050 H   0  0  0  0  0  0  0  0  0  0  0  0
   32.1750   40.3560   26.6390 H   0  0  0  0  0  0  0  0  0  0  0  0
   30.5750   38.8640   25.5580 H   0  0  0  0  0  0  0  0  0  0  0  0
   31.8230   37.5870   25.2680 H   0  0  0  0  0  0  0  0  0  0  0  0
   30.7370   38.4930   28.0300 H   0  0  0  0  0  0  0  0  0  0  0  0
   30.5820   36.8470   27.2270 H   0  0  0  0  0  0  0  0  0  0  0  0
   33.1040   35.0980   23.6170 C   0  0  0  0  0  0  0  0  0  0  0  0
   32.2480   35.7250   23.9910 H   0  0  0  0  0  0  0  0  0  0  0  0
   32.6740   34.1580   23.1690 H   0  0  0  0  0  0  0  0  0  0  0  0
   34.0170   34.7000   24.8300 C   0  0  0  0  0  0  0  0  0  0  0  0
   34.3830   35.8700   25.5780 O   0  0  0  0  0  0  0  0  0  0  0  0
   33.5960   36.3440   25.9310 H   0  0  0  0  0  0  0  0  0  0  0  0
   35.3640   34.1100   24.4090 C   0  0  0  0  0  0  0  0  0  0  0  0
   35.9870   34.8960   23.9350 H   0  0  0  0  0  0  0  0  0  0  0  0
   35.9120   33.7400   25.3050 H   0  0  0  0  0  0  0  0  0  0  0  0
   35.2200   33.2600   23.7100 H   0  0  0  0  0  0  0  0  0  0  0  0
   33.2130   33.7490   25.7320 C   0  0  0  0  0  0  0  0  0  0  0  0
   33.7290   33.6270   26.7120 H   0  0  0  0  0  0  0  0  0  0  0  0
   32.1890   34.1370   25.9310 H   0  0  0  0  0  0  0  0  0  0  0  0
   33.1200   32.7410   25.2650 H   0  0  0  0  0  0  0  0  0  0  0  0
  1  3  2  0  0  0  0
  1  7  1  0  0  0  0
  1 21  1  0  0  0  0
  2 12  1  0  0  0  0
  2 17  2  0  0  0  0
  2 18  1  0  0  0  0
  3 13  1  0  0  0  0
  3 14  1  0  0  0  0
  4 16  2  0  0  0  0
  4 19  1  0  0  0  0
  4 20  1  0  0  0  0
  5  6  1  0  0  0  0
  5 10  1  0  0  0  0
  5 11  2  0  0  0  0
  6 12  2  0  0  0  0
  6 22  1  0  0  0  0
  7  8  2  0  0  0  0
  7 27  1  0  0  0  0
  8  9  1  0  0  0  0
  8 23  1  0  0  0  0
  9 13  2  0  0  0  0
  9 24  1  0  0  0  0
 10 18  1  0  0  0  0
 10 19  2  0  0  0  0
 11 16  1  0  0  0  0
 11 25  1  0  0  0  0
 12 15  1  0  0  0  0
 13 15  1  0  0  0  0
 18 43  1  0  0  0  0
 20 26  1  0  0  0  0
 20 30  1  0  0  0  0
 28 29  1  0  0  0  0
 28 33  1  0  0  0  0
 28 34  1  0  0  0  0
 28 35  1  0  0  0  0
 29 30  1  0  0  0  0
 29 36  1  0  0  0  0
 29 37  1  0  0  0  0
 30 31  1  0  0  0  0
 30 38  1  0  0  0  0
 31 32  1  0  0  0  0
 31 39  1  0  0  0  0
 31 40  1  0  0  0  0
 32 33  1  0  0  0  0
 32 41  1  0  0  0  0
 32 42  1  0  0  0  0
 43 44  1  0  0  0  0
 43 45  1  0  0  0  0
 43 46  1  0  0  0  0
 46 47  1  0  0  0  0
 46 49  1  0  0  0  0
 46 53  1  0  0  0  0
 47 48  1  0  0  0  0
 49 50  1  0  0  0  0
 49 51  1  0  0  0  0
 49 52  1  0  0  0  0
 53 54  1  0  0  0  0
 53 55  1  0  0  0  0
 53 56  1  0  0  0  0
M  END
$$$$
