18659-1
 OpenBabel02232411163D
Structure written by MMmdl.
 50 51  0  0  0  0  0  0  0  0999 V2000
   22.6500   13.8920   28.8990 C   0  0  0  0  0  0  0  0  0  0  0  0
   23.0230   13.6530   30.2740 O   0  0  0  0  0  0  0  0  0  0  0  0
   23.9320   12.5560   30.4550 C   0  0  0  0  0  0  0  0  0  0  0  0
   23.2680   11.1750   30.3460 C   0  0  0  0  0  0  0  0  0  0  0  0
   22.1260   11.2410   31.2740 O   0  0  0  0  0  0  0  0  0  0  0  0
   21.5030   10.0870   31.6040 C   0  0  0  0  0  0  0  0  0  0  0  0
   21.9580    8.9100   31.1150 N   0  0  0  0  0  0  0  0  0  0  0  0
   21.2410    7.7650   31.4380 C   0  0  0  0  0  0  0  0  0  0  0  0
   20.1090    7.7910   32.2470 C   0  0  0  0  0  0  0  0  0  0  0  0
   19.6420    9.0320   32.7570 C   0  0  0  0  0  0  0  0  0  0  0  0
   18.5080    9.0630   33.5280 N   0  0  0  0  0  0  0  0  0  0  0  0
   20.3520   10.2330   32.4350 C   0  0  0  0  0  0  0  0  0  0  0  0
   19.9620   11.5260   32.8460 C   0  0  0  0  0  0  0  0  0  0  0  0
   19.6920   12.6140   33.1410 N   0  0  0  0  0  0  0  0  0  0  0  0
   21.7930    6.6120   30.8400 N   0  0  0  0  0  0  0  0  0  0  0  0
   21.1960    5.3310   30.7660 C   0  0  0  0  0  0  0  0  0  0  0  0
   20.1300    5.0710   31.2810 O   0  0  0  0  0  0  0  0  0  0  0  0
   21.9900    4.3460   29.9170 C   0  0  0  0  0  0  0  0  0  0  0  0
   23.3230    4.0030   30.5150 C   0  0  0  0  0  0  0  0  0  0  0  0
   24.4510    4.8250   30.2800 C   0  0  0  0  0  0  0  0  0  0  0  0
   24.1780    5.9040   29.4450 O   0  0  0  0  0  0  0  0  0  0  0  0
   25.1960    6.9320   29.3180 C   0  0  0  0  0  0  0  0  0  0  0  0
   25.7040    4.5340   30.8330 C   0  0  0  0  0  0  0  0  0  0  0  0
   25.8520    3.4030   31.6310 C   0  0  0  0  0  0  0  0  0  0  0  0
   24.7390    2.5700   31.8540 C   0  0  0  0  0  0  0  0  0  0  0  0
   23.4830    2.8570   31.2990 C   0  0  0  0  0  0  0  0  0  0  0  0
   25.0300    1.4970   32.6710 O   0  0  0  0  0  0  0  0  0  0  0  0
   24.0270    0.4590   32.8100 C   0  0  0  0  0  0  0  0  0  0  0  0
   23.5590   14.0730   28.2820 H   0  0  0  0  0  0  0  0  0  0  0  0
   22.0700   13.0300   28.5070 H   0  0  0  0  0  0  0  0  0  0  0  0
   22.0280   14.8100   28.9830 H   0  0  0  0  0  0  0  0  0  0  0  0
   24.3020   12.7410   31.4910 H   0  0  0  0  0  0  0  0  0  0  0  0
   24.7700   12.6010   29.7140 H   0  0  0  0  0  0  0  0  0  0  0  0
   22.8590   10.9660   29.3330 H   0  0  0  0  0  0  0  0  0  0  0  0
   23.9780   10.3750   30.6670 H   0  0  0  0  0  0  0  0  0  0  0  0
   19.5610    6.8750   32.4780 H   0  0  0  0  0  0  0  0  0  0  0  0
   18.0150    8.1890   33.7930 H   0  0  0  0  0  0  0  0  0  0  0  0
   18.1180    9.9430   33.8650 H   0  0  0  0  0  0  0  0  0  0  0  0
   22.7080    6.7580   30.3430 H   0  0  0  0  0  0  0  0  0  0  0  0
   21.3810    3.4150   29.7860 H   0  0  0  0  0  0  0  0  0  0  0  0
   22.1530    4.8110   28.9060 H   0  0  0  0  0  0  0  0  0  0  0  0
   26.0660    6.5250   28.7610 H   0  0  0  0  0  0  0  0  0  0  0  0
   25.4850    7.3220   30.3170 H   0  0  0  0  0  0  0  0  0  0  0  0
   24.6580    7.7060   28.7240 H   0  0  0  0  0  0  0  0  0  0  0  0
   26.5720    5.1710   30.6440 H   0  0  0  0  0  0  0  0  0  0  0  0
   26.8250    3.1650   32.0710 H   0  0  0  0  0  0  0  0  0  0  0  0
   22.6340    2.1960   31.4740 H   0  0  0  0  0  0  0  0  0  0  0  0
   24.5640   -0.2880   33.4430 H   0  0  0  0  0  0  0  0  0  0  0  0
   23.1320    0.8560   33.3360 H   0  0  0  0  0  0  0  0  0  0  0  0
   23.7780    0.0320   31.8150 H   0  0  0  0  0  0  0  0  0  0  0  0
  1  2  1  0  0  0  0
  1 29  1  0  0  0  0
  1 30  1  0  0  0  0
  1 31  1  0  0  0  0
  2  3  1  0  0  0  0
  3  4  1  0  0  0  0
  3 32  1  0  0  0  0
  3 33  1  0  0  0  0
  4  5  1  0  0  0  0
  4 34  1  0  0  0  0
  4 35  1  0  0  0  0
  5  6  1  0  0  0  0
  6 12  2  0  0  0  0
  6  7  1  0  0  0  0
  7  8  2  0  0  0  0
  8  9  1  0  0  0  0
  8 15  1  0  0  0  0
  9 10  2  0  0  0  0
  9 36  1  0  0  0  0
 10 11  1  0  0  0  0
 10 12  1  0  0  0  0
 11 37  1  0  0  0  0
 11 38  1  0  0  0  0
 12 13  1  0  0  0  0
 13 14  3  0  0  0  0
 15 16  1  0  0  0  0
 15 39  1  0  0  0  0
 16 17  2  0  0  0  0
 16 18  1  0  0  0  0
 18 19  1  0  0  0  0
 18 40  1  0  0  0  0
 18 41  1  0  0  0  0
 19 26  2  0  0  0  0
 19 20  1  0  0  0  0
 20 21  1  0  0  0  0
 20 23  2  0  0  0  0
 21 22  1  0  0  0  0
 22 42  1  0  0  0  0
 22 43  1  0  0  0  0
 22 44  1  0  0  0  0
 23 24  1  0  0  0  0
 23 45  1  0  0  0  0
 24 25  2  0  0  0  0
 24 46  1  0  0  0  0
 25 26  1  0  0  0  0
 25 27  1  0  0  0  0
 26 47  1  0  0  0  0
 27 28  1  0  0  0  0
 28 48  1  0  0  0  0
 28 49  1  0  0  0  0
 28 50  1  0  0  0  0
M  END
$$$$
