18639-1
 OpenBabel02232411163D
Structure written by MMmdl.
 48 49  0  0  0  0  0  0  0  0999 V2000
   23.2160   10.7810   29.0640 C   0  0  0  0  0  0  0  0  0  0  0  0
   23.4890   11.0350   30.5320 C   0  0  0  0  0  0  0  0  0  0  0  0
   22.2220   11.1480   31.2870 O   0  0  0  0  0  0  0  0  0  0  0  0
   21.5610   10.0220   31.6340 C   0  0  0  0  0  0  0  0  0  0  0  0
   22.0290    8.8220   31.2190 N   0  0  0  0  0  0  0  0  0  0  0  0
   21.2830    7.6990   31.5340 C   0  0  0  0  0  0  0  0  0  0  0  0
   20.1150    7.7560   32.2850 C   0  0  0  0  0  0  0  0  0  0  0  0
   19.6450    9.0170   32.7420 C   0  0  0  0  0  0  0  0  0  0  0  0
   18.4890    9.0770   33.4790 N   0  0  0  0  0  0  0  0  0  0  0  0
   20.3760   10.2020   32.4080 C   0  0  0  0  0  0  0  0  0  0  0  0
   19.9820   11.5090   32.7660 C   0  0  0  0  0  0  0  0  0  0  0  0
   19.7080   12.6070   33.0200 N   0  0  0  0  0  0  0  0  0  0  0  0
   21.8600    6.5290   30.9870 N   0  0  0  0  0  0  0  0  0  0  0  0
   21.2560    5.2590   30.8860 C   0  0  0  0  0  0  0  0  0  0  0  0
   20.1580    5.0140   31.3390 O   0  0  0  0  0  0  0  0  0  0  0  0
   22.0820    4.2600   30.0850 C   0  0  0  0  0  0  0  0  0  0  0  0
   23.4510    3.9940   30.6390 C   0  0  0  0  0  0  0  0  0  0  0  0
   24.5460    4.8560   30.3160 C   0  0  0  0  0  0  0  0  0  0  0  0
   24.1860    5.9010   29.4740 O   0  0  0  0  0  0  0  0  0  0  0  0
   25.1360    6.9900   29.3090 C   0  0  0  0  0  0  0  0  0  0  0  0
   25.8260    4.6200   30.7910 C   0  0  0  0  0  0  0  0  0  0  0  0
   26.0600    3.5070   31.6270 C   0  0  0  0  0  0  0  0  0  0  0  0
   27.4130    3.2570   32.1300 N   0  3  0  0  0  0  0  0  0  0  0  0
   27.5490    2.4730   33.0570 O   0  5  0  0  0  0  0  0  0  0  0  0
   28.3520    3.8360   31.5970 O   0  0  0  0  0  0  0  0  0  0  0  0
   24.9900    2.6400   31.9520 C   0  0  0  0  0  0  0  0  0  0  0  0
   23.6950    2.8900   31.4410 C   0  0  0  0  0  0  0  0  0  0  0  0
   25.3400    1.6060   32.7660 O   0  0  0  0  0  0  0  0  0  0  0  0
   24.3440    0.5690   33.0110 C   0  0  0  0  0  0  0  0  0  0  0  0
   24.1780   10.8320   28.4980 H   0  0  0  0  0  0  0  0  0  0  0  0
   22.5250   11.5450   28.6420 H   0  0  0  0  0  0  0  0  0  0  0  0
   22.7710    9.7710   28.9050 H   0  0  0  0  0  0  0  0  0  0  0  0
   23.8980   12.0580   30.7150 H   0  0  0  0  0  0  0  0  0  0  0  0
   24.1220   10.2390   30.9860 H   0  0  0  0  0  0  0  0  0  0  0  0
   19.5450    6.8530   32.5120 H   0  0  0  0  0  0  0  0  0  0  0  0
   17.9830    8.2110   33.7470 H   0  0  0  0  0  0  0  0  0  0  0  0
   18.0980    9.9680   33.7830 H   0  0  0  0  0  0  0  0  0  0  0  0
   22.7840    6.6740   30.5070 H   0  0  0  0  0  0  0  0  0  0  0  0
   21.5100    3.2950   30.0270 H   0  0  0  0  0  0  0  0  0  0  0  0
   22.1890    4.6730   29.0410 H   0  0  0  0  0  0  0  0  0  0  0  0
   25.4510    7.3890   30.2970 H   0  0  0  0  0  0  0  0  0  0  0  0
   25.9940    6.6360   28.6980 H   0  0  0  0  0  0  0  0  0  0  0  0
   24.5180    7.7340   28.7550 H   0  0  0  0  0  0  0  0  0  0  0  0
   26.6640    5.2730   30.5200 H   0  0  0  0  0  0  0  0  0  0  0  0
   22.8800    2.2010   31.6770 H   0  0  0  0  0  0  0  0  0  0  0  0
   24.9310   -0.1620   33.6180 H   0  0  0  0  0  0  0  0  0  0  0  0
   23.4970    0.9840   33.5960 H   0  0  0  0  0  0  0  0  0  0  0  0
   24.0180    0.1170   32.0490 H   0  0  0  0  0  0  0  0  0  0  0  0
  1  2  1  0  0  0  0
  1 30  1  0  0  0  0
  1 31  1  0  0  0  0
  1 32  1  0  0  0  0
  2  3  1  0  0  0  0
  2 33  1  0  0  0  0
  2 34  1  0  0  0  0
  3  4  1  0  0  0  0
  4 10  2  0  0  0  0
  4  5  1  0  0  0  0
  5  6  2  0  0  0  0
  6  7  1  0  0  0  0
  6 13  1  0  0  0  0
  7  8  2  0  0  0  0
  7 35  1  0  0  0  0
  8  9  1  0  0  0  0
  8 10  1  0  0  0  0
  9 36  1  0  0  0  0
  9 37  1  0  0  0  0
 10 11  1  0  0  0  0
 11 12  3  0  0  0  0
 13 14  1  0  0  0  0
 13 38  1  0  0  0  0
 14 15  2  0  0  0  0
 14 16  1  0  0  0  0
 16 17  1  0  0  0  0
 16 39  1  0  0  0  0
 16 40  1  0  0  0  0
 17 27  2  0  0  0  0
 17 18  1  0  0  0  0
 18 19  1  0  0  0  0
 18 21  2  0  0  0  0
 19 20  1  0  0  0  0
 20 41  1  0  0  0  0
 20 42  1  0  0  0  0
 20 43  1  0  0  0  0
 21 22  1  0  0  0  0
 21 44  1  0  0  0  0
 22 23  1  0  0  0  0
 22 26  2  0  0  0  0
 23 24  1  0  0  0  0
 23 25  2  0  0  0  0
 26 27  1  0  0  0  0
 26 28  1  0  0  0  0
 27 45  1  0  0  0  0
 28 29  1  0  0  0  0
 29 46  1  0  0  0  0
 29 47  1  0  0  0  0
 29 48  1  0  0  0  0
M  CHG  2  23   1  24  -1
M  END
$$$$
