p38a_2u
 OpenBabel02232411163D
Structure written by MMmdl.
 64 68  0  0  0  0  0  0  0  0999 V2000
   38.2270   36.4990   17.2320 C   0  0  0  0  0  0  0  0  0  0  0  0
   34.5520   35.2100   21.4260 C   0  0  0  0  0  0  0  0  0  0  0  0
   37.4590   36.0800   18.3150 C   0  0  0  0  0  0  0  0  0  0  0  0
   34.0940   39.3720   23.8500 C   0  0  0  0  0  0  0  0  0  0  0  0
   34.6640   38.0880   21.4760 C   0  0  0  0  0  0  0  0  0  0  0  0
   35.0330   37.3930   20.2730 C   0  0  0  0  0  0  0  0  0  0  0  0
   37.5570   36.6350   16.0080 C   0  0  0  0  0  0  0  0  0  0  0  0
   36.2000   36.3490   15.8370 C   0  0  0  0  0  0  0  0  0  0  0  0
   35.4520   35.9230   16.9410 C   0  0  0  0  0  0  0  0  0  0  0  0
   34.3380   37.3530   22.6520 C   0  0  0  0  0  0  0  0  0  0  0  0
   34.6240   39.5060   21.5710 C   0  0  0  0  0  0  0  0  0  0  0  0
   35.0190   36.0410   20.2790 C   0  0  0  0  0  0  0  0  0  0  0  0
   36.0870   35.7800   18.1780 C   0  0  0  0  0  0  0  0  0  0  0  0
   38.0190   35.9590   19.5110 F   0  0  0  0  0  0  0  0  0  0  0  0
   35.3790   35.1900   19.2340 O   0  0  0  0  0  0  0  0  0  0  0  0
   34.3540   40.1600   22.7100 N   0  0  0  0  0  0  0  0  0  0  0  0
   34.4020   34.0080   21.3830 O   0  0  0  0  0  0  0  0  0  0  0  0
   34.2700   35.9440   22.6310 N   0  0  0  0  0  0  0  0  0  0  0  0
   34.0750   37.9910   23.8360 N   0  0  0  0  0  0  0  0  0  0  0  0
   33.7780   40.0130   25.0240 N   0  0  0  0  0  0  0  0  0  0  0  0
   39.2880   36.7450   17.3380 H   0  0  0  0  0  0  0  0  0  0  0  0
   35.3240   37.9820   19.4010 H   0  0  0  0  0  0  0  0  0  0  0  0
   35.7130   36.4680   14.8660 H   0  0  0  0  0  0  0  0  0  0  0  0
   34.3820   35.7190   16.8300 H   0  0  0  0  0  0  0  0  0  0  0  0
   34.8150   40.1160   20.6730 H   0  0  0  0  0  0  0  0  0  0  0  0
   33.8970   41.0410   25.1010 H   0  0  0  0  0  0  0  0  0  0  0  0
   38.2440   37.0960   14.9650 F   0  0  0  0  0  0  0  0  0  0  0  0
   32.5800   39.3580   28.5940 C   0  0  0  0  0  0  0  0  0  0  0  0
   32.6480   40.0300   27.2170 C   0  0  0  0  0  0  0  0  0  0  0  0
   33.6530   39.2770   26.3210 C   0  0  0  0  0  0  0  0  0  0  0  0
   35.0250   39.1740   27.0220 C   0  0  0  0  0  0  0  0  0  0  0  0
   34.8490   38.5440   28.4100 C   0  0  0  0  0  0  0  0  0  0  0  0
   33.8840   39.2660   29.2100 O   0  0  0  0  0  0  0  0  0  0  0  0
   32.1420   38.3360   28.5160 H   0  0  0  0  0  0  0  0  0  0  0  0
   32.0210   39.9920   29.3210 H   0  0  0  0  0  0  0  0  0  0  0  0
   32.9680   41.0920   27.3390 H   0  0  0  0  0  0  0  0  0  0  0  0
   31.6400   40.0200   26.7400 H   0  0  0  0  0  0  0  0  0  0  0  0
   33.2580   38.2420   26.1130 H   0  0  0  0  0  0  0  0  0  0  0  0
   35.7120   38.5360   26.4170 H   0  0  0  0  0  0  0  0  0  0  0  0
   35.4770   40.1890   27.1190 H   0  0  0  0  0  0  0  0  0  0  0  0
   34.5250   37.4810   28.3250 H   0  0  0  0  0  0  0  0  0  0  0  0
   35.7790   38.6420   29.0160 H   0  0  0  0  0  0  0  0  0  0  0  0
   34.2410   33.0050   25.0900 C   0  0  0  0  0  0  0  0  0  0  0  0
   34.8770   34.2270   24.3860 C   0  0  0  0  0  0  0  0  0  0  0  0
   33.8130   35.2200   23.8830 C   0  0  0  0  0  0  0  0  0  0  0  0
   32.4620   34.5250   23.6390 C   0  0  0  0  0  0  0  0  0  0  0  0
   31.9270   33.9890   24.9810 C   0  0  0  0  0  0  0  0  0  0  0  0
   35.0080   32.6240   25.8150 H   0  0  0  0  0  0  0  0  0  0  0  0
   34.0310   32.2130   24.3250 H   0  0  0  0  0  0  0  0  0  0  0  0
   35.5090   33.8400   23.5550 H   0  0  0  0  0  0  0  0  0  0  0  0
   35.5390   34.7570   25.1150 H   0  0  0  0  0  0  0  0  0  0  0  0
   33.6630   35.9930   24.6970 H   0  0  0  0  0  0  0  0  0  0  0  0
   31.7190   35.2530   23.2310 H   0  0  0  0  0  0  0  0  0  0  0  0
   32.5790   33.6930   22.9050 H   0  0  0  0  0  0  0  0  0  0  0  0
   31.5220   34.8550   25.5780 H   0  0  0  0  0  0  0  0  0  0  0  0
   31.1030   33.2620   24.7530 H   0  0  0  0  0  0  0  0  0  0  0  0
   32.9960   33.3650   25.8280 N   0  0  0  0  0  0  0  0  0  0  0  0
   32.4440   32.3940   27.1400 S   0  0  0  0  0  0  0  0  0  0  0  0
   31.4540   31.4160   26.6420 O   0  0  0  0  0  0  0  0  0  0  0  0
   31.8410   33.3010   28.1370 O   0  0  0  0  0  0  0  0  0  0  0  0
   33.8220   31.5900   27.8150 C   0  0  0  0  0  0  0  0  0  0  0  0
   34.6410   32.3040   28.1000 H   0  0  0  0  0  0  0  0  0  0  0  0
   33.5480   31.0460   28.7630 H   0  0  0  0  0  0  0  0  0  0  0  0
   34.2570   30.8130   27.1360 H   0  0  0  0  0  0  0  0  0  0  0  0
  1  3  2  0  0  0  0
  1  7  1  0  0  0  0
  1 21  1  0  0  0  0
  2 12  1  0  0  0  0
  2 17  2  0  0  0  0
  2 18  1  0  0  0  0
  3 13  1  0  0  0  0
  3 14  1  0  0  0  0
  4 16  2  0  0  0  0
  4 19  1  0  0  0  0
  4 20  1  0  0  0  0
  5  6  1  0  0  0  0
  5 10  1  0  0  0  0
  5 11  2  0  0  0  0
  6 12  2  0  0  0  0
  6 22  1  0  0  0  0
  7  8  2  0  0  0  0
  7 27  1  0  0  0  0
  8  9  1  0  0  0  0
  8 23  1  0  0  0  0
  9 13  2  0  0  0  0
  9 24  1  0  0  0  0
 10 18  1  0  0  0  0
 10 19  2  0  0  0  0
 11 16  1  0  0  0  0
 11 25  1  0  0  0  0
 12 15  1  0  0  0  0
 13 15  1  0  0  0  0
 18 45  1  0  0  0  0
 20 26  1  0  0  0  0
 20 30  1  0  0  0  0
 28 29  1  0  0  0  0
 28 33  1  0  0  0  0
 28 34  1  0  0  0  0
 28 35  1  0  0  0  0
 29 30  1  0  0  0  0
 29 36  1  0  0  0  0
 29 37  1  0  0  0  0
 30 31  1  0  0  0  0
 30 38  1  0  0  0  0
 31 32  1  0  0  0  0
 31 39  1  0  0  0  0
 31 40  1  0  0  0  0
 32 33  1  0  0  0  0
 32 41  1  0  0  0  0
 32 42  1  0  0  0  0
 43 44  1  0  0  0  0
 43 48  1  0  0  0  0
 43 49  1  0  0  0  0
 43 57  1  0  0  0  0
 44 45  1  0  0  0  0
 44 50  1  0  0  0  0
 44 51  1  0  0  0  0
 45 46  1  0  0  0  0
 45 52  1  0  0  0  0
 46 47  1  0  0  0  0
 46 53  1  0  0  0  0
 46 54  1  0  0  0  0
 47 55  1  0  0  0  0
 47 56  1  0  0  0  0
 47 57  1  0  0  0  0
 57 58  1  0  0  0  0
 58 59  2  0  0  0  0
 58 60  2  0  0  0  0
 58 61  1  0  0  0  0
 61 62  1  0  0  0  0
 61 63  1  0  0  0  0
 61 64  1  0  0  0  0
M  END
$$$$
