18639-1
 OpenBabel02232411163D
Structure written by MMmdl.
 48 49  0  0  0  0  0  0  0  0999 V2000
   23.1730   10.8060   29.0560 C   0  0  0  0  0  0  0  0  0  0  0  0
   23.4650   11.0380   30.5240 C   0  0  0  0  0  0  0  0  0  0  0  0
   22.2060   11.1470   31.2920 O   0  0  0  0  0  0  0  0  0  0  0  0
   21.5480   10.0180   31.6370 C   0  0  0  0  0  0  0  0  0  0  0  0
   22.0170    8.8200   31.2160 N   0  0  0  0  0  0  0  0  0  0  0  0
   21.2760    7.6930   31.5350 C   0  0  0  0  0  0  0  0  0  0  0  0
   20.1130    7.7460   32.2940 C   0  0  0  0  0  0  0  0  0  0  0  0
   19.6390    9.0050   32.7510 C   0  0  0  0  0  0  0  0  0  0  0  0
   18.4850    9.0620   33.4890 N   0  0  0  0  0  0  0  0  0  0  0  0
   20.3660   10.1930   32.4160 C   0  0  0  0  0  0  0  0  0  0  0  0
   19.9690   11.4980   32.7770 C   0  0  0  0  0  0  0  0  0  0  0  0
   19.6950   12.5960   33.0330 N   0  0  0  0  0  0  0  0  0  0  0  0
   21.8560    6.5290   30.9810 N   0  0  0  0  0  0  0  0  0  0  0  0
   21.2790    5.2450   30.9120 C   0  0  0  0  0  0  0  0  0  0  0  0
   20.1950    4.9810   31.3860 O   0  0  0  0  0  0  0  0  0  0  0  0
   22.1160    4.2530   30.1120 C   0  0  0  0  0  0  0  0  0  0  0  0
   23.5000    4.0260   30.6480 C   0  0  0  0  0  0  0  0  0  0  0  0
   24.5710    4.9090   30.2990 C   0  0  0  0  0  0  0  0  0  0  0  0
   24.1770    5.9420   29.4570 O   0  0  0  0  0  0  0  0  0  0  0  0
   25.0950    7.0610   29.2960 C   0  0  0  0  0  0  0  0  0  0  0  0
   25.8650    4.6990   30.7480 C   0  0  0  0  0  0  0  0  0  0  0  0
   26.1380    3.5970   31.5860 C   0  0  0  0  0  0  0  0  0  0  0  0
   27.5070    3.3740   32.0580 N   0  3  0  0  0  0  0  0  0  0  0  0
   27.6830    2.5760   32.9660 O   0  5  0  0  0  0  0  0  0  0  0  0
   28.4190    3.9900   31.5190 O   0  0  0  0  0  0  0  0  0  0  0  0
   25.0910    2.7140   31.9420 C   0  0  0  0  0  0  0  0  0  0  0  0
   23.7810    2.9370   31.4570 C   0  0  0  0  0  0  0  0  0  0  0  0
   25.4780    1.6930   32.7550 O   0  0  0  0  0  0  0  0  0  0  0  0
   24.5030    0.6460   33.0390 C   0  0  0  0  0  0  0  0  0  0  0  0
   24.1310   10.8470   28.4800 H   0  0  0  0  0  0  0  0  0  0  0  0
   22.4920   11.5860   28.6500 H   0  0  0  0  0  0  0  0  0  0  0  0
   22.7100    9.8050   28.8900 H   0  0  0  0  0  0  0  0  0  0  0  0
   23.8810   12.0560   30.7160 H   0  0  0  0  0  0  0  0  0  0  0  0
   24.0990   10.2330   30.9600 H   0  0  0  0  0  0  0  0  0  0  0  0
   19.5500    6.8400   32.5260 H   0  0  0  0  0  0  0  0  0  0  0  0
   17.9830    8.1950   33.7620 H   0  0  0  0  0  0  0  0  0  0  0  0
   18.0920    9.9520   33.7950 H   0  0  0  0  0  0  0  0  0  0  0  0
   22.7710    6.6840   30.4860 H   0  0  0  0  0  0  0  0  0  0  0  0
   21.5670    3.2740   30.0790 H   0  0  0  0  0  0  0  0  0  0  0  0
   22.1970    4.6500   29.0610 H   0  0  0  0  0  0  0  0  0  0  0  0
   24.4480    7.7970   28.7650 H   0  0  0  0  0  0  0  0  0  0  0  0
   25.9510    6.7390   28.6660 H   0  0  0  0  0  0  0  0  0  0  0  0
   25.4150    7.4520   30.2860 H   0  0  0  0  0  0  0  0  0  0  0  0
   26.6850    5.3650   30.4540 H   0  0  0  0  0  0  0  0  0  0  0  0
   22.9850    2.2340   31.7150 H   0  0  0  0  0  0  0  0  0  0  0  0
   25.1160   -0.0710   33.6360 H   0  0  0  0  0  0  0  0  0  0  0  0
   23.6670    1.0560   33.6450 H   0  0  0  0  0  0  0  0  0  0  0  0
   24.1540    0.1800   32.0920 H   0  0  0  0  0  0  0  0  0  0  0  0
  1  2  1  0  0  0  0
  1 30  1  0  0  0  0
  1 31  1  0  0  0  0
  1 32  1  0  0  0  0
  2  3  1  0  0  0  0
  2 33  1  0  0  0  0
  2 34  1  0  0  0  0
  3  4  1  0  0  0  0
  4 10  2  0  0  0  0
  4  5  1  0  0  0  0
  5  6  2  0  0  0  0
  6  7  1  0  0  0  0
  6 13  1  0  0  0  0
  7  8  2  0  0  0  0
  7 35  1  0  0  0  0
  8  9  1  0  0  0  0
  8 10  1  0  0  0  0
  9 36  1  0  0  0  0
  9 37  1  0  0  0  0
 10 11  1  0  0  0  0
 11 12  3  0  0  0  0
 13 14  1  0  0  0  0
 13 38  1  0  0  0  0
 14 15  2  0  0  0  0
 14 16  1  0  0  0  0
 16 17  1  0  0  0  0
 16 39  1  0  0  0  0
 16 40  1  0  0  0  0
 17 27  2  0  0  0  0
 17 18  1  0  0  0  0
 18 19  1  0  0  0  0
 18 21  2  0  0  0  0
 19 20  1  0  0  0  0
 20 41  1  0  0  0  0
 20 42  1  0  0  0  0
 20 43  1  0  0  0  0
 21 22  1  0  0  0  0
 21 44  1  0  0  0  0
 22 23  1  0  0  0  0
 22 26  2  0  0  0  0
 23 24  1  0  0  0  0
 23 25  2  0  0  0  0
 26 27  1  0  0  0  0
 26 28  1  0  0  0  0
 27 45  1  0  0  0  0
 28 29  1  0  0  0  0
 29 46  1  0  0  0  0
 29 47  1  0  0  0  0
 29 48  1  0  0  0  0
M  CHG  2  23   1  24  -1
M  END
$$$$
