p38a_2m
 OpenBabel02232411163D
Structure written by MMmdl.
 50 54  0  0  0  0  0  0  0  0999 V2000
   36.3960   36.1250   15.7030 C   0  0  0  0  0  0  0  0  0  0  0  0
   34.6230   34.9710   21.1800 C   0  0  0  0  0  0  0  0  0  0  0  0
   35.7860   35.6130   16.8440 C   0  0  0  0  0  0  0  0  0  0  0  0
   33.9180   39.0310   23.7190 C   0  0  0  0  0  0  0  0  0  0  0  0
   34.8030   37.8420   21.3920 C   0  0  0  0  0  0  0  0  0  0  0  0
   35.3260   37.1870   20.2220 C   0  0  0  0  0  0  0  0  0  0  0  0
   37.6860   36.6460   15.8650 C   0  0  0  0  0  0  0  0  0  0  0  0
   38.3690   36.6470   17.0840 C   0  0  0  0  0  0  0  0  0  0  0  0
   37.7200   36.1630   18.2250 C   0  0  0  0  0  0  0  0  0  0  0  0
   34.3230   37.0660   22.4870 C   0  0  0  0  0  0  0  0  0  0  0  0
   34.7610   39.2540   21.5420 C   0  0  0  0  0  0  0  0  0  0  0  0
   35.2670   35.8380   20.1520 C   0  0  0  0  0  0  0  0  0  0  0  0
   36.4290   35.6450   18.0990 C   0  0  0  0  0  0  0  0  0  0  0  0
   34.5790   35.0690   16.7770 F   0  0  0  0  0  0  0  0  0  0  0  0
   35.7550   35.0060   19.1470 O   0  0  0  0  0  0  0  0  0  0  0  0
   34.3420   39.8620   22.6640 N   0  0  0  0  0  0  0  0  0  0  0  0
   34.3840   33.7940   21.0500 O   0  0  0  0  0  0  0  0  0  0  0  0
   34.2740   35.6610   22.3960 N   0  0  0  0  0  0  0  0  0  0  0  0
   33.8870   37.6520   23.6460 N   0  0  0  0  0  0  0  0  0  0  0  0
   33.4420   39.6360   24.8630 N   0  0  0  0  0  0  0  0  0  0  0  0
   35.8880   36.1400   14.7360 H   0  0  0  0  0  0  0  0  0  0  0  0
   35.7650   37.8080   19.4380 H   0  0  0  0  0  0  0  0  0  0  0  0
   39.3830   37.0480   17.1620 H   0  0  0  0  0  0  0  0  0  0  0  0
   38.2190   36.2170   19.1950 H   0  0  0  0  0  0  0  0  0  0  0  0
   35.0840   39.9030   20.7110 H   0  0  0  0  0  0  0  0  0  0  0  0
   33.5900   40.6550   24.9980 H   0  0  0  0  0  0  0  0  0  0  0  0
   38.2710   37.2000   14.8050 F   0  0  0  0  0  0  0  0  0  0  0  0
   31.8820   38.8560   28.2600 C   0  0  0  0  0  0  0  0  0  0  0  0
   32.0920   39.5780   26.9240 C   0  0  0  0  0  0  0  0  0  0  0  0
   33.1850   38.8530   26.1110 C   0  0  0  0  0  0  0  0  0  0  0  0
   34.4770   38.7150   26.9470 C   0  0  0  0  0  0  0  0  0  0  0  0
   34.1580   38.0470   28.2900 C   0  0  0  0  0  0  0  0  0  0  0  0
   33.1170   38.7520   29.0060 O   0  0  0  0  0  0  0  0  0  0  0  0
   31.4670   37.8330   28.0990 H   0  0  0  0  0  0  0  0  0  0  0  0
   31.2400   39.4500   28.9490 H   0  0  0  0  0  0  0  0  0  0  0  0
   32.3970   40.6350   27.1110 H   0  0  0  0  0  0  0  0  0  0  0  0
   31.1380   39.5830   26.3450 H   0  0  0  0  0  0  0  0  0  0  0  0
   32.8130   37.8270   25.8280 H   0  0  0  0  0  0  0  0  0  0  0  0
   35.2180   38.0850   26.3980 H   0  0  0  0  0  0  0  0  0  0  0  0
   34.9300   39.7210   27.1180 H   0  0  0  0  0  0  0  0  0  0  0  0
   33.8390   36.9890   28.1400 H   0  0  0  0  0  0  0  0  0  0  0  0
   35.0200   38.1180   28.9920 H   0  0  0  0  0  0  0  0  0  0  0  0
   33.8250   34.8910   23.5760 C   0  0  0  0  0  0  0  0  0  0  0  0
   34.6350   34.9700   24.8680 C   0  0  0  0  0  0  0  0  0  0  0  0
   34.6300   33.6900   24.0580 C   0  0  0  0  0  0  0  0  0  0  0  0
   32.7220   34.8630   23.6490 H   0  0  0  0  0  0  0  0  0  0  0  0
   35.5480   35.5750   24.9130 H   0  0  0  0  0  0  0  0  0  0  0  0
   34.0770   35.0120   25.8160 H   0  0  0  0  0  0  0  0  0  0  0  0
   35.5520   33.3840   23.5540 H   0  0  0  0  0  0  0  0  0  0  0  0
   34.0640   32.8270   24.4430 H   0  0  0  0  0  0  0  0  0  0  0  0
  1  3  2  0  0  0  0
  1  7  1  0  0  0  0
  1 21  1  0  0  0  0
  2 12  1  0  0  0  0
  2 17  2  0  0  0  0
  2 18  1  0  0  0  0
  3 13  1  0  0  0  0
  3 14  1  0  0  0  0
  4 16  2  0  0  0  0
  4 19  1  0  0  0  0
  4 20  1  0  0  0  0
  5  6  1  0  0  0  0
  5 10  1  0  0  0  0
  5 11  2  0  0  0  0
  6 12  2  0  0  0  0
  6 22  1  0  0  0  0
  7  8  2  0  0  0  0
  7 27  1  0  0  0  0
  8  9  1  0  0  0  0
  8 23  1  0  0  0  0
  9 13  2  0  0  0  0
  9 24  1  0  0  0  0
 10 18  1  0  0  0  0
 10 19  2  0  0  0  0
 11 16  1  0  0  0  0
 11 25  1  0  0  0  0
 12 15  1  0  0  0  0
 13 15  1  0  0  0  0
 18 43  1  0  0  0  0
 20 26  1  0  0  0  0
 20 30  1  0  0  0  0
 28 29  1  0  0  0  0
 28 33  1  0  0  0  0
 28 34  1  0  0  0  0
 28 35  1  0  0  0  0
 29 30  1  0  0  0  0
 29 36  1  0  0  0  0
 29 37  1  0  0  0  0
 30 31  1  0  0  0  0
 30 38  1  0  0  0  0
 31 32  1  0  0  0  0
 31 39  1  0  0  0  0
 31 40  1  0  0  0  0
 32 33  1  0  0  0  0
 32 41  1  0  0  0  0
 32 42  1  0  0  0  0
 43 44  1  0  0  0  0
 43 45  1  0  0  0  0
 43 46  1  0  0  0  0
 44 45  1  0  0  0  0
 44 47  1  0  0  0  0
 44 48  1  0  0  0  0
 45 49  1  0  0  0  0
 45 50  1  0  0  0  0
M  END
$$$$
