18637-1
 OpenBabel02232411163D
Structure written by MMmdl.
 53 54  0  0  0  0  0  0  0  0999 V2000
   23.9180   12.5170   30.3350 C   0  0  0  0  0  0  0  0  0  0  0  0
   23.4710   11.0740   30.4730 C   0  0  0  0  0  0  0  0  0  0  0  0
   22.2100   11.1830   31.2500 O   0  0  0  0  0  0  0  0  0  0  0  0
   21.5670   10.0460   31.5950 C   0  0  0  0  0  0  0  0  0  0  0  0
   22.0340    8.8570   31.1490 N   0  0  0  0  0  0  0  0  0  0  0  0
   21.2980    7.7220   31.4660 C   0  0  0  0  0  0  0  0  0  0  0  0
   20.1440    7.7700   32.2440 C   0  0  0  0  0  0  0  0  0  0  0  0
   19.6720    9.0210   32.7200 C   0  0  0  0  0  0  0  0  0  0  0  0
   18.5260    9.0720   33.4740 N   0  0  0  0  0  0  0  0  0  0  0  0
   20.3910   10.2130   32.3850 C   0  0  0  0  0  0  0  0  0  0  0  0
   19.9890   11.5140   32.7550 C   0  0  0  0  0  0  0  0  0  0  0  0
   19.7040   12.6070   33.0190 N   0  0  0  0  0  0  0  0  0  0  0  0
   21.8510    6.5550   30.8960 N   0  0  0  0  0  0  0  0  0  0  0  0
   21.2260    5.2870   30.8130 C   0  0  0  0  0  0  0  0  0  0  0  0
   20.1480    5.0600   31.3210 O   0  0  0  0  0  0  0  0  0  0  0  0
   21.9970    4.2800   29.9720 C   0  0  0  0  0  0  0  0  0  0  0  0
   23.3060    3.8840   30.5860 C   0  0  0  0  0  0  0  0  0  0  0  0
   24.4670    4.6570   30.3610 C   0  0  0  0  0  0  0  0  0  0  0  0
   24.2420    5.7430   29.5270 O   0  0  0  0  0  0  0  0  0  0  0  0
   25.3240    6.6910   29.3350 C   0  0  0  0  0  0  0  0  0  0  0  0
   25.7000    4.3230   30.9250 C   0  0  0  0  0  0  0  0  0  0  0  0
   25.8060    3.1770   31.7320 C   0  0  0  0  0  0  0  0  0  0  0  0
   24.6510    2.3690   31.9360 C   0  0  0  0  0  0  0  0  0  0  0  0
   23.4220    2.7340   31.3730 C   0  0  0  0  0  0  0  0  0  0  0  0
   24.8440    1.2630   32.7450 O   0  0  0  0  0  0  0  0  0  0  0  0
   23.9200    0.1580   32.5370 C   0  0  0  0  0  0  0  0  0  0  0  0
   27.0930    2.8480   32.2500 N   0  0  0  0  0  0  0  0  0  0  0  0
   27.3810    2.3000   33.5320 C   0  0  0  0  0  0  0  0  0  0  0  0
   26.4930    1.9740   34.2940 O   0  0  0  0  0  0  0  0  0  0  0  0
   28.8510    2.1740   33.7950 C   0  0  0  0  0  0  0  0  0  0  0  0
   24.1360   12.9730   31.3260 H   0  0  0  0  0  0  0  0  0  0  0  0
   23.1410   13.1300   29.8200 H   0  0  0  0  0  0  0  0  0  0  0  0
   24.8490   12.5440   29.7150 H   0  0  0  0  0  0  0  0  0  0  0  0
   23.2270   10.6100   29.4910 H   0  0  0  0  0  0  0  0  0  0  0  0
   24.1890   10.4580   31.0600 H   0  0  0  0  0  0  0  0  0  0  0  0
   19.5840    6.8620   32.4780 H   0  0  0  0  0  0  0  0  0  0  0  0
   18.1370    9.9610   33.7880 H   0  0  0  0  0  0  0  0  0  0  0  0
   18.0210    8.2060   33.7420 H   0  0  0  0  0  0  0  0  0  0  0  0
   22.7790    6.6800   30.4210 H   0  0  0  0  0  0  0  0  0  0  0  0
   21.3590    3.3720   29.8240 H   0  0  0  0  0  0  0  0  0  0  0  0
   22.1910    4.7430   28.9660 H   0  0  0  0  0  0  0  0  0  0  0  0
   26.1620    6.1990   28.7960 H   0  0  0  0  0  0  0  0  0  0  0  0
   25.6450    7.1140   30.3110 H   0  0  0  0  0  0  0  0  0  0  0  0
   24.8310    7.4640   28.7020 H   0  0  0  0  0  0  0  0  0  0  0  0
   26.5870    4.9320   30.7310 H   0  0  0  0  0  0  0  0  0  0  0  0
   22.5400    2.1080   31.5320 H   0  0  0  0  0  0  0  0  0  0  0  0
   24.3900   -0.6540   33.1390 H   0  0  0  0  0  0  0  0  0  0  0  0
   22.9140    0.4160   32.9330 H   0  0  0  0  0  0  0  0  0  0  0  0
   23.8880   -0.1180   31.4600 H   0  0  0  0  0  0  0  0  0  0  0  0
   27.8850    3.2360   31.7020 H   0  0  0  0  0  0  0  0  0  0  0  0
   29.0530    1.7130   34.7940 H   0  0  0  0  0  0  0  0  0  0  0  0
   29.3550    1.5350   33.0220 H   0  0  0  0  0  0  0  0  0  0  0  0
   29.3600    3.1740   33.7750 H   0  0  0  0  0  0  0  0  0  0  0  0
  1  2  1  0  0  0  0
  1 31  1  0  0  0  0
  1 32  1  0  0  0  0
  1 33  1  0  0  0  0
  2  3  1  0  0  0  0
  2 34  1  0  0  0  0
  2 35  1  0  0  0  0
  3  4  1  0  0  0  0
  4 10  2  0  0  0  0
  4  5  1  0  0  0  0
  5  6  2  0  0  0  0
  6  7  1  0  0  0  0
  6 13  1  0  0  0  0
  7  8  2  0  0  0  0
  7 36  1  0  0  0  0
  8  9  1  0  0  0  0
  8 10  1  0  0  0  0
  9 37  1  0  0  0  0
  9 38  1  0  0  0  0
 10 11  1  0  0  0  0
 11 12  3  0  0  0  0
 13 14  1  0  0  0  0
 13 39  1  0  0  0  0
 14 15  2  0  0  0  0
 14 16  1  0  0  0  0
 16 17  1  0  0  0  0
 16 40  1  0  0  0  0
 16 41  1  0  0  0  0
 17 24  2  0  0  0  0
 17 18  1  0  0  0  0
 18 19  1  0  0  0  0
 18 21  2  0  0  0  0
 19 20  1  0  0  0  0
 20 42  1  0  0  0  0
 20 43  1  0  0  0  0
 20 44  1  0  0  0  0
 21 22  1  0  0  0  0
 21 45  1  0  0  0  0
 22 23  2  0  0  0  0
 22 27  1  0  0  0  0
 23 24  1  0  0  0  0
 23 25  1  0  0  0  0
 24 46  1  0  0  0  0
 25 26  1  0  0  0  0
 26 47  1  0  0  0  0
 26 48  1  0  0  0  0
 26 49  1  0  0  0  0
 27 28  1  0  0  0  0
 27 50  1  0  0  0  0
 28 29  2  0  0  0  0
 28 30  1  0  0  0  0
 30 51  1  0  0  0  0
 30 52  1  0  0  0  0
 30 53  1  0  0  0  0
M  END
$$$$
