65
 OpenBabel02232411163D
Structure written by MMmdl.
 43 45  0  0  0  0  0  0  0  0999 V2000
    3.8430  -50.0850    5.9430 O   0  0  0  0  0  0  0  0  0  0  0  0
    3.1250  -49.2330    6.4980 C   0  0  0  0  0  0  0  0  0  0  0  0
    3.4910  -48.2470    7.1480 O   0  5  0  0  0  0  0  0  0  0  0  0
    1.6210  -49.5280    6.4090 C   0  0  0  0  0  0  0  0  0  0  0  0
    1.1700  -51.1150    6.9920 S   0  0  0  0  0  0  0  0  0  0  0  0
   -0.5200  -50.8600    6.6660 C   0  0  0  0  0  0  0  0  0  0  0  0
   -1.6100  -51.6970    6.8900 C   0  0  0  0  0  0  0  0  0  0  0  0
   -2.8900  -51.3180    6.4990 C   0  0  0  0  0  0  0  0  0  0  0  0
   -3.0720  -50.0650    5.8870 C   0  0  0  0  0  0  0  0  0  0  0  0
   -2.0030  -49.1970    5.6810 C   0  0  0  0  0  0  0  0  0  0  0  0
   -0.7070  -49.5790    6.0740 C   0  0  0  0  0  0  0  0  0  0  0  0
    0.5460  -48.8220    5.9720 C   0  0  0  0  0  0  0  0  0  0  0  0
    0.5690  -47.4160    5.4590 C   0  0  0  0  0  0  0  0  0  0  0  0
    0.5420  -46.3740    6.5920 C   0  0  0  0  0  0  0  0  0  0  0  0
   -0.7700  -46.3590    7.3720 C   0  0  0  0  0  0  0  0  0  0  0  0
   -1.7260  -45.7690    6.4150 O   0  0  0  0  0  0  0  0  0  0  0  0
   -2.9890  -45.4980    6.8390 C   0  0  0  0  0  0  0  0  0  0  0  0
   -3.5240  -45.8690    8.0830 C   0  0  0  0  0  0  0  0  0  0  0  0
   -4.8460  -45.5180    8.3870 C   0  0  0  0  0  0  0  0  0  0  0  0
   -5.4510  -45.8860    9.7010 C   0  0  0  0  0  0  0  0  0  0  0  0
   -5.5970  -44.8200    7.4290 C   0  0  0  0  0  0  0  0  0  0  0  0
   -7.2450  -44.4500    7.7810 Cl  0  0  0  0  0  0  0  0  0  0  0  0
   -5.0730  -44.4470    6.1760 C   0  0  0  0  0  0  0  0  0  0  0  0
   -5.9250  -43.7660    5.1570 C   0  0  0  0  0  0  0  0  0  0  0  0
   -3.7530  -44.7880    5.8880 C   0  0  0  0  0  0  0  0  0  0  0  0
   -1.4300  -53.2290    7.6840 Cl  0  0  0  0  0  0  0  0  0  0  0  0
   -3.7470  -51.9710    6.6610 H   0  0  0  0  0  0  0  0  0  0  0  0
   -4.0790  -49.7810    5.5780 H   0  0  0  0  0  0  0  0  0  0  0  0
   -2.1960  -48.2270    5.2190 H   0  0  0  0  0  0  0  0  0  0  0  0
   -0.3230  -47.2370    4.8040 H   0  0  0  0  0  0  0  0  0  0  0  0
    1.4880  -47.2400    4.8480 H   0  0  0  0  0  0  0  0  0  0  0  0
    0.6820  -45.3580    6.1490 H   0  0  0  0  0  0  0  0  0  0  0  0
    1.3720  -46.5830    7.3120 H   0  0  0  0  0  0  0  0  0  0  0  0
   -0.7280  -45.6780    8.2480 H   0  0  0  0  0  0  0  0  0  0  0  0
   -1.1490  -47.3740    7.6180 H   0  0  0  0  0  0  0  0  0  0  0  0
   -2.9510  -46.4430    8.8050 H   0  0  0  0  0  0  0  0  0  0  0  0
   -5.8830  -44.9860   10.2010 H   0  0  0  0  0  0  0  0  0  0  0  0
   -6.2820  -46.6170    9.5420 H   0  0  0  0  0  0  0  0  0  0  0  0
   -4.7030  -46.3550   10.3790 H   0  0  0  0  0  0  0  0  0  0  0  0
   -5.3170  -43.4400    4.2820 H   0  0  0  0  0  0  0  0  0  0  0  0
   -6.7110  -44.4810    4.8030 H   0  0  0  0  0  0  0  0  0  0  0  0
   -6.4360  -42.8750    5.5870 H   0  0  0  0  0  0  0  0  0  0  0  0
   -3.3130  -44.5300    4.9310 H   0  0  0  0  0  0  0  0  0  0  0  0
  1  2  2  0  0  0  0
  2  3  1  0  0  0  0
  2  4  1  0  0  0  0
  4  5  1  0  0  0  0
  4 12  2  0  0  0  0
  5  6  1  0  0  0  0
  6  7  2  0  0  0  0
  6 11  1  0  0  0  0
  7  8  1  0  0  0  0
  7 26  1  0  0  0  0
  8  9  2  0  0  0  0
  8 27  1  0  0  0  0
  9 10  1  0  0  0  0
  9 28  1  0  0  0  0
 10 11  2  0  0  0  0
 10 29  1  0  0  0  0
 11 12  1  0  0  0  0
 12 13  1  0  0  0  0
 13 30  1  0  0  0  0
 13 31  1  0  0  0  0
 13 14  1  0  0  0  0
 14 15  1  0  0  0  0
 14 32  1  0  0  0  0
 14 33  1  0  0  0  0
 15 16  1  0  0  0  0
 15 34  1  0  0  0  0
 15 35  1  0  0  0  0
 16 17  1  0  0  0  0
 17 18  2  0  0  0  0
 17 25  1  0  0  0  0
 18 19  1  0  0  0  0
 18 36  1  0  0  0  0
 19 20  1  0  0  0  0
 19 21  2  0  0  0  0
 20 37  1  0  0  0  0
 20 38  1  0  0  0  0
 20 39  1  0  0  0  0
 21 22  1  0  0  0  0
 21 23  1  0  0  0  0
 23 24  1  0  0  0  0
 23 25  2  0  0  0  0
 24 40  1  0  0  0  0
 24 41  1  0  0  0  0
 24 42  1  0  0  0  0
 25 43  1  0  0  0  0
M  CHG  1   3  -1
M  END
$$$$
