p38a_2m
 OpenBabel02232411163D
Structure written by MMmdl.
 50 54  0  0  0  0  0  0  0  0999 V2000
   38.3060   36.5630   17.1490 C   0  0  0  0  0  0  0  0  0  0  0  0
   34.4810   35.0850   21.1710 C   0  0  0  0  0  0  0  0  0  0  0  0
   37.5250   36.1040   18.2060 C   0  0  0  0  0  0  0  0  0  0  0  0
   33.9220   39.1420   23.7550 C   0  0  0  0  0  0  0  0  0  0  0  0
   34.6290   37.9560   21.3690 C   0  0  0  0  0  0  0  0  0  0  0  0
   35.0720   37.3130   20.1620 C   0  0  0  0  0  0  0  0  0  0  0  0
   37.6580   36.7170   15.9160 C   0  0  0  0  0  0  0  0  0  0  0  0
   36.3110   36.4110   15.7090 C   0  0  0  0  0  0  0  0  0  0  0  0
   35.5500   35.9380   16.7840 C   0  0  0  0  0  0  0  0  0  0  0  0
   34.1710   37.1770   22.4710 C   0  0  0  0  0  0  0  0  0  0  0  0
   34.6470   39.3670   21.5380 C   0  0  0  0  0  0  0  0  0  0  0  0
   35.0310   35.9640   20.1010 C   0  0  0  0  0  0  0  0  0  0  0  0
   36.1640   35.7760   18.0290 C   0  0  0  0  0  0  0  0  0  0  0  0
   38.0560   35.9740   19.4140 F   0  0  0  0  0  0  0  0  0  0  0  0
   35.4500   35.1440   19.0550 O   0  0  0  0  0  0  0  0  0  0  0  0
   34.3160   39.9740   22.6880 N   0  0  0  0  0  0  0  0  0  0  0  0
   34.3810   33.8830   21.0700 O   0  0  0  0  0  0  0  0  0  0  0  0
   34.0650   35.7700   22.3700 N   0  0  0  0  0  0  0  0  0  0  0  0
   33.8330   37.7670   23.6610 N   0  0  0  0  0  0  0  0  0  0  0  0
   33.5510   39.7450   24.9350 N   0  0  0  0  0  0  0  0  0  0  0  0
   39.3590   36.8270   17.2830 H   0  0  0  0  0  0  0  0  0  0  0  0
   35.4370   37.9380   19.3450 H   0  0  0  0  0  0  0  0  0  0  0  0
   35.8400   36.5510   14.7340 H   0  0  0  0  0  0  0  0  0  0  0  0
   34.4880   35.7140   16.6430 H   0  0  0  0  0  0  0  0  0  0  0  0
   34.9420   40.0130   20.6950 H   0  0  0  0  0  0  0  0  0  0  0  0
   33.7170   40.7600   25.0680 H   0  0  0  0  0  0  0  0  0  0  0  0
   38.3520   37.2210   14.8990 F   0  0  0  0  0  0  0  0  0  0  0  0
   32.1110   39.0360   28.4030 C   0  0  0  0  0  0  0  0  0  0  0  0
   32.3170   39.7640   27.0690 C   0  0  0  0  0  0  0  0  0  0  0  0
   33.2860   38.9580   26.1790 C   0  0  0  0  0  0  0  0  0  0  0  0
   34.6010   38.6710   26.9370 C   0  0  0  0  0  0  0  0  0  0  0  0
   34.2860   37.9950   28.2780 C   0  0  0  0  0  0  0  0  0  0  0  0
   33.3680   38.7840   29.0700 O   0  0  0  0  0  0  0  0  0  0  0  0
   31.5790   38.0690   28.2510 H   0  0  0  0  0  0  0  0  0  0  0  0
   31.5790   39.6820   29.1380 H   0  0  0  0  0  0  0  0  0  0  0  0
   32.7300   40.7830   27.2600 H   0  0  0  0  0  0  0  0  0  0  0  0
   31.3390   39.8750   26.5440 H   0  0  0  0  0  0  0  0  0  0  0  0
   32.7970   37.9840   25.8930 H   0  0  0  0  0  0  0  0  0  0  0  0
   35.2480   37.9910   26.3320 H   0  0  0  0  0  0  0  0  0  0  0  0
   35.1560   39.6230   27.1100 H   0  0  0  0  0  0  0  0  0  0  0  0
   33.8480   36.9820   28.1210 H   0  0  0  0  0  0  0  0  0  0  0  0
   35.1870   37.9530   28.9320 H   0  0  0  0  0  0  0  0  0  0  0  0
   33.4720   35.0390   23.5100 C   0  0  0  0  0  0  0  0  0  0  0  0
   33.7830   33.5770   23.7910 C   0  0  0  0  0  0  0  0  0  0  0  0
   32.4070   33.9720   23.2830 C   0  0  0  0  0  0  0  0  0  0  0  0
   33.3430   35.6920   24.4030 H   0  0  0  0  0  0  0  0  0  0  0  0
   34.4560   33.0070   23.1420 H   0  0  0  0  0  0  0  0  0  0  0  0
   33.8840   33.2820   24.8490 H   0  0  0  0  0  0  0  0  0  0  0  0
   32.0990   33.6880   22.2700 H   0  0  0  0  0  0  0  0  0  0  0  0
   31.5580   33.9540   23.9860 H   0  0  0  0  0  0  0  0  0  0  0  0
  1  3  2  0  0  0  0
  1  7  1  0  0  0  0
  1 21  1  0  0  0  0
  2 12  1  0  0  0  0
  2 17  2  0  0  0  0
  2 18  1  0  0  0  0
  3 13  1  0  0  0  0
  3 14  1  0  0  0  0
  4 16  2  0  0  0  0
  4 19  1  0  0  0  0
  4 20  1  0  0  0  0
  5  6  1  0  0  0  0
  5 10  1  0  0  0  0
  5 11  2  0  0  0  0
  6 12  2  0  0  0  0
  6 22  1  0  0  0  0
  7  8  2  0  0  0  0
  7 27  1  0  0  0  0
  8  9  1  0  0  0  0
  8 23  1  0  0  0  0
  9 13  2  0  0  0  0
  9 24  1  0  0  0  0
 10 18  1  0  0  0  0
 10 19  2  0  0  0  0
 11 16  1  0  0  0  0
 11 25  1  0  0  0  0
 12 15  1  0  0  0  0
 13 15  1  0  0  0  0
 18 43  1  0  0  0  0
 20 26  1  0  0  0  0
 20 30  1  0  0  0  0
 28 29  1  0  0  0  0
 28 33  1  0  0  0  0
 28 34  1  0  0  0  0
 28 35  1  0  0  0  0
 29 30  1  0  0  0  0
 29 36  1  0  0  0  0
 29 37  1  0  0  0  0
 30 31  1  0  0  0  0
 30 38  1  0  0  0  0
 31 32  1  0  0  0  0
 31 39  1  0  0  0  0
 31 40  1  0  0  0  0
 32 33  1  0  0  0  0
 32 41  1  0  0  0  0
 32 42  1  0  0  0  0
 43 44  1  0  0  0  0
 43 45  1  0  0  0  0
 43 46  1  0  0  0  0
 44 45  1  0  0  0  0
 44 47  1  0  0  0  0
 44 48  1  0  0  0  0
 45 49  1  0  0  0  0
 45 50  1  0  0  0  0
M  END
$$$$
