p38a_2s
 OpenBabel02232411163D
Structure written by MMmdl.
 54 57  0  0  1  0  0  0  0  0999 V2000
   38.2810   36.5050   17.2190 C   0  0  0  0  0  0  0  0  0  0  0  0
   34.4290   35.0270   21.2440 C   0  0  0  0  0  0  0  0  0  0  0  0
   37.5040   36.0490   18.2810 C   0  0  0  0  0  0  0  0  0  0  0  0
   33.8930   39.1060   23.7980 C   0  0  0  0  0  0  0  0  0  0  0  0
   34.5910   37.9010   21.4200 C   0  0  0  0  0  0  0  0  0  0  0  0
   35.0440   37.2410   20.2250 C   0  0  0  0  0  0  0  0  0  0  0  0
   37.6320   36.6400   15.9840 C   0  0  0  0  0  0  0  0  0  0  0  0
   36.2880   36.3160   15.7810 C   0  0  0  0  0  0  0  0  0  0  0  0
   35.5330   35.8470   16.8610 C   0  0  0  0  0  0  0  0  0  0  0  0
   34.1280   37.1330   22.5310 C   0  0  0  0  0  0  0  0  0  0  0  0
   34.6100   39.3120   21.5750 C   0  0  0  0  0  0  0  0  0  0  0  0
   35.0020   35.8910   20.1730 C   0  0  0  0  0  0  0  0  0  0  0  0
   36.1480   35.7020   18.1080 C   0  0  0  0  0  0  0  0  0  0  0  0
   38.0380   35.9370   19.4900 F   0  0  0  0  0  0  0  0  0  0  0  0
   35.4420   35.0670   19.1400 O   0  0  0  0  0  0  0  0  0  0  0  0
   34.2780   39.9270   22.7210 N   0  0  0  0  0  0  0  0  0  0  0  0
   34.2760   33.8280   21.1670 O   0  0  0  0  0  0  0  0  0  0  0  0
   33.9880   35.7380   22.4180 N   0  0  0  0  0  0  0  0  0  0  0  0
   33.7990   37.7290   23.7230 N   0  0  0  0  0  0  0  0  0  0  0  0
   33.5300   39.7330   24.9720 N   0  0  0  0  0  0  0  0  0  0  0  0
   39.3310   36.7830   17.3490 H   0  0  0  0  0  0  0  0  0  0  0  0
   35.4190   37.8590   19.4060 H   0  0  0  0  0  0  0  0  0  0  0  0
   35.8160   36.4410   14.8040 H   0  0  0  0  0  0  0  0  0  0  0  0
   34.4720   35.6140   16.7230 H   0  0  0  0  0  0  0  0  0  0  0  0
   34.9080   39.9550   20.7290 H   0  0  0  0  0  0  0  0  0  0  0  0
   33.6880   40.7560   25.0690 H   0  0  0  0  0  0  0  0  0  0  0  0
   38.3230   37.1410   14.9630 F   0  0  0  0  0  0  0  0  0  0  0  0
   32.2810   39.0610   28.5180 C   0  0  0  0  0  0  0  0  0  0  0  0
   32.3530   39.7180   27.1350 C   0  0  0  0  0  0  0  0  0  0  0  0
   33.3960   38.9900   26.2610 C   0  0  0  0  0  0  0  0  0  0  0  0
   34.7560   38.9240   26.9910 C   0  0  0  0  0  0  0  0  0  0  0  0
   34.5720   38.3100   28.3850 C   0  0  0  0  0  0  0  0  0  0  0  0
   33.5770   39.0210   29.1570 O   0  0  0  0  0  0  0  0  0  0  0  0
   31.8800   38.0230   28.4470 H   0  0  0  0  0  0  0  0  0  0  0  0
   31.6870   39.6790   29.2290 H   0  0  0  0  0  0  0  0  0  0  0  0
   32.6380   40.7920   27.2480 H   0  0  0  0  0  0  0  0  0  0  0  0
   31.3530   39.6710   26.6410 H   0  0  0  0  0  0  0  0  0  0  0  0
   33.0320   37.9480   26.0470 H   0  0  0  0  0  0  0  0  0  0  0  0
   35.4740   38.3010   26.4080 H   0  0  0  0  0  0  0  0  0  0  0  0
   35.1810   39.9530   27.0860 H   0  0  0  0  0  0  0  0  0  0  0  0
   34.2740   37.2380   28.3120 H   0  0  0  0  0  0  0  0  0  0  0  0
   35.4880   38.4370   29.0070 H   0  0  0  0  0  0  0  0  0  0  0  0
   33.4350   34.9510   23.5620 C   0  0  0  0  0  0  0  0  0  0  0  0
   32.5390   35.4960   23.9800 H   0  0  0  0  0  0  0  0  0  0  0  0
   33.0980   33.9490   23.1800 H   0  0  0  0  0  0  0  0  0  0  0  0
   34.4650   34.7500   24.6980 C   0  0  2  0  0  0  0  0  0  0  0  0
   35.5740   33.9790   24.2380 O   0  0  0  0  0  0  0  0  0  0  0  0
   35.3600   33.0010   24.2560 H   0  0  0  0  0  0  0  0  0  0  0  0
   33.8220   34.0610   25.9310 C   0  0  0  0  0  0  0  0  0  0  0  0
   34.4220   34.2680   26.8490 H   0  0  0  0  0  0  0  0  0  0  0  0
   33.7120   32.9620   25.7730 H   0  0  0  0  0  0  0  0  0  0  0  0
   34.9480   35.7130   24.9950 H   0  0  0  0  0  0  0  0  0  0  0  0
   32.4680   34.4860   26.1320 O   0  0  0  0  0  0  0  0  0  0  0  0
   32.4620   35.4250   26.4530 H   0  0  0  0  0  0  0  0  0  0  0  0
  1  3  2  0  0  0  0
  1  7  1  0  0  0  0
  1 21  1  0  0  0  0
  2 12  1  0  0  0  0
  2 17  2  0  0  0  0
  2 18  1  0  0  0  0
  3 13  1  0  0  0  0
  3 14  1  0  0  0  0
  4 16  2  0  0  0  0
  4 19  1  0  0  0  0
  4 20  1  0  0  0  0
  5  6  1  0  0  0  0
  5 10  1  0  0  0  0
  5 11  2  0  0  0  0
  6 12  2  0  0  0  0
  6 22  1  0  0  0  0
  7  8  2  0  0  0  0
  7 27  1  0  0  0  0
  8  9  1  0  0  0  0
  8 23  1  0  0  0  0
  9 13  2  0  0  0  0
  9 24  1  0  0  0  0
 10 18  1  0  0  0  0
 10 19  2  0  0  0  0
 11 16  1  0  0  0  0
 11 25  1  0  0  0  0
 12 15  1  0  0  0  0
 13 15  1  0  0  0  0
 18 43  1  0  0  0  0
 20 26  1  0  0  0  0
 20 30  1  0  0  0  0
 28 29  1  0  0  0  0
 28 33  1  0  0  0  0
 28 34  1  0  0  0  0
 28 35  1  0  0  0  0
 29 30  1  0  0  0  0
 29 36  1  0  0  0  0
 29 37  1  0  0  0  0
 30 31  1  0  0  0  0
 30 38  1  0  0  0  0
 31 32  1  0  0  0  0
 31 39  1  0  0  0  0
 31 40  1  0  0  0  0
 32 33  1  0  0  0  0
 32 41  1  0  0  0  0
 32 42  1  0  0  0  0
 43 44  1  0  0  0  0
 43 45  1  0  0  0  0
 43 46  1  0  0  0  0
 46 47  1  0  0  0  0
 46 49  1  0  0  0  0
 46 52  1  1  0  0  0
 47 48  1  0  0  0  0
 49 50  1  0  0  0  0
 49 51  1  0  0  0  0
 49 53  1  0  0  0  0
 53 54  1  0  0  0  0
M  END
$$$$
