48
 OpenBabel02232411163D
Structure written by MMmdl.
 42 45  0  0  0  0  0  0  0  0999 V2000
    3.7360  -49.9800    5.9160 O   0  0  0  0  0  0  0  0  0  0  0  0
    3.0030  -49.1430    6.4800 C   0  0  0  0  0  0  0  0  0  0  0  0
    3.3700  -48.1430    7.1100 O   0  5  0  0  0  0  0  0  0  0  0  0
    1.4940  -49.4400    6.3790 C   0  0  0  0  0  0  0  0  0  0  0  0
   -0.3600  -50.7800    6.5080 C   0  0  0  0  0  0  0  0  0  0  0  0
   -1.2800  -51.8210    6.7200 C   0  0  0  0  0  0  0  0  0  0  0  0
   -2.6100  -51.5710    6.4130 C   0  0  0  0  0  0  0  0  0  0  0  0
   -3.0220  -50.3200    5.8970 C   0  0  0  0  0  0  0  0  0  0  0  0
   -2.1170  -49.2880    5.6850 C   0  0  0  0  0  0  0  0  0  0  0  0
   -0.7640  -49.4920    6.0000 C   0  0  0  0  0  0  0  0  0  0  0  0
    0.4240  -48.6650    5.9490 C   0  0  0  0  0  0  0  0  0  0  0  0
    0.4160  -47.2420    5.5190 C   0  0  0  0  0  0  0  0  0  0  0  0
    0.2440  -46.2620    6.6950 C   0  0  0  0  0  0  0  0  0  0  0  0
   -1.1130  -46.3630    7.3940 C   0  0  0  0  0  0  0  0  0  0  0  0
   -2.0440  -45.7680    6.4210 O   0  0  0  0  0  0  0  0  0  0  0  0
   -3.3010  -45.4180    6.7960 C   0  0  0  0  0  0  0  0  0  0  0  0
   -5.9540  -44.4390    7.2470 C   0  0  0  0  0  0  0  0  0  0  0  0
   -5.2270  -44.0670    6.1250 C   0  0  0  0  0  0  0  0  0  0  0  0
   -3.9260  -44.5430    5.8910 C   0  0  0  0  0  0  0  0  0  0  0  0
   -0.9700  -52.7880    7.1160 H   0  0  0  0  0  0  0  0  0  0  0  0
   -3.3600  -52.3470    6.5730 H   0  0  0  0  0  0  0  0  0  0  0  0
   -4.0780  -50.1740    5.6660 H   0  0  0  0  0  0  0  0  0  0  0  0
   -2.4630  -48.3340    5.2840 H   0  0  0  0  0  0  0  0  0  0  0  0
   -0.4390  -47.0850    4.8120 H   0  0  0  0  0  0  0  0  0  0  0  0
    1.3640  -46.9830    4.9900 H   0  0  0  0  0  0  0  0  0  0  0  0
    0.3530  -45.2200    6.3110 H   0  0  0  0  0  0  0  0  0  0  0  0
    1.0330  -46.4560    7.4600 H   0  0  0  0  0  0  0  0  0  0  0  0
   -1.1500  -45.7430    8.3150 H   0  0  0  0  0  0  0  0  0  0  0  0
   -1.4410  -47.4100    7.5550 H   0  0  0  0  0  0  0  0  0  0  0  0
   -3.4000  -44.2250    4.9970 H   0  0  0  0  0  0  0  0  0  0  0  0
   -5.6750  -43.3820    5.4000 H   0  0  0  0  0  0  0  0  0  0  0  0
   -6.9570  -44.0700    7.4300 H   0  0  0  0  0  0  0  0  0  0  0  0
    1.0250  -50.7230    6.7290 N   0  0  0  0  0  0  0  0  0  0  0  0
    1.5690  -51.5080    7.0670 H   0  0  0  0  0  0  0  0  0  0  0  0
   -4.9090  -46.8560    9.7920 C   0  0  0  0  0  0  0  0  0  0  0  0
   -5.8590  -45.9230    9.2980 N   0  0  0  0  0  0  0  0  0  0  0  0
   -5.3370  -45.3430    8.1330 C   0  0  0  0  0  0  0  0  0  0  0  0
   -4.0080  -45.8630    7.9410 C   0  0  0  0  0  0  0  0  0  0  0  0
   -3.7780  -46.8100    9.0040 C   0  0  0  0  0  0  0  0  0  0  0  0
   -6.8000  -45.8270    9.6360 H   0  0  0  0  0  0  0  0  0  0  0  0
   -2.8980  -47.4040    9.1510 H   0  0  0  0  0  0  0  0  0  0  0  0
   -5.1360  -47.4730   10.6440 H   0  0  0  0  0  0  0  0  0  0  0  0
  1  2  2  0  0  0  0
  2  3  1  0  0  0  0
  2  4  1  0  0  0  0
  4 11  2  0  0  0  0
  4 33  1  0  0  0  0
  5  6  2  0  0  0  0
  5 10  1  0  0  0  0
  5 33  1  0  0  0  0
  6  7  1  0  0  0  0
  6 20  1  0  0  0  0
  7  8  2  0  0  0  0
  7 21  1  0  0  0  0
  8  9  1  0  0  0  0
  8 22  1  0  0  0  0
  9 10  2  0  0  0  0
  9 23  1  0  0  0  0
 10 11  1  0  0  0  0
 11 12  1  0  0  0  0
 12 24  1  0  0  0  0
 12 25  1  0  0  0  0
 12 13  1  0  0  0  0
 13 14  1  0  0  0  0
 13 26  1  0  0  0  0
 13 27  1  0  0  0  0
 14 15  1  0  0  0  0
 14 28  1  0  0  0  0
 14 29  1  0  0  0  0
 15 16  1  0  0  0  0
 16 19  2  0  0  0  0
 16 38  1  0  0  0  0
 17 18  2  0  0  0  0
 17 32  1  0  0  0  0
 17 37  1  0  0  0  0
 18 19  1  0  0  0  0
 18 31  1  0  0  0  0
 19 30  1  0  0  0  0
 33 34  1  0  0  0  0
 35 36  1  0  0  0  0
 35 39  2  0  0  0  0
 35 42  1  0  0  0  0
 36 37  1  0  0  0  0
 36 40  1  0  0  0  0
 37 38  2  0  0  0  0
 38 39  1  0  0  0  0
 39 41  1  0  0  0  0
M  CHG  1   3  -1
M  END
$$$$
