p38a_2u
 OpenBabel02232411163D
Structure written by MMmdl.
 64 68  0  0  0  0  0  0  0  0999 V2000
   38.2990   36.5450   17.1630 C   0  0  0  0  0  0  0  0  0  0  0  0
   34.5630   35.0580   21.2710 C   0  0  0  0  0  0  0  0  0  0  0  0
   37.5400   36.0880   18.2370 C   0  0  0  0  0  0  0  0  0  0  0  0
   33.9490   39.1530   23.7760 C   0  0  0  0  0  0  0  0  0  0  0  0
   34.6460   37.9350   21.4040 C   0  0  0  0  0  0  0  0  0  0  0  0
   35.0790   37.2760   20.2030 C   0  0  0  0  0  0  0  0  0  0  0  0
   37.6300   36.6810   15.9390 C   0  0  0  0  0  0  0  0  0  0  0  0
   36.2830   36.3590   15.7580 C   0  0  0  0  0  0  0  0  0  0  0  0
   35.5460   35.8860   16.8490 C   0  0  0  0  0  0  0  0  0  0  0  0
   34.2270   37.1670   22.5300 C   0  0  0  0  0  0  0  0  0  0  0  0
   34.6360   39.3500   21.5450 C   0  0  0  0  0  0  0  0  0  0  0  0
   35.0720   35.9250   20.1700 C   0  0  0  0  0  0  0  0  0  0  0  0
   36.1820   35.7390   18.0850 C   0  0  0  0  0  0  0  0  0  0  0  0
   38.0940   35.9770   19.4370 F   0  0  0  0  0  0  0  0  0  0  0  0
   35.4940   35.1020   19.1270 O   0  0  0  0  0  0  0  0  0  0  0  0
   34.3070   39.9720   22.6860 N   0  0  0  0  0  0  0  0  0  0  0  0
   34.4860   33.8500   21.2030 O   0  0  0  0  0  0  0  0  0  0  0  0
   34.1460   35.7590   22.4560 N   0  0  0  0  0  0  0  0  0  0  0  0
   33.9020   37.7730   23.7160 N   0  0  0  0  0  0  0  0  0  0  0  0
   33.5730   39.7690   24.9460 N   0  0  0  0  0  0  0  0  0  0  0  0
   39.3510   36.8220   17.2790 H   0  0  0  0  0  0  0  0  0  0  0  0
   35.4090   37.8920   19.3640 H   0  0  0  0  0  0  0  0  0  0  0  0
   35.7930   36.4850   14.7890 H   0  0  0  0  0  0  0  0  0  0  0  0
   34.4830   35.6510   16.7300 H   0  0  0  0  0  0  0  0  0  0  0  0
   34.9070   39.9860   20.6850 H   0  0  0  0  0  0  0  0  0  0  0  0
   33.7070   40.7930   25.0560 H   0  0  0  0  0  0  0  0  0  0  0  0
   38.3040   37.1800   14.9060 F   0  0  0  0  0  0  0  0  0  0  0  0
   32.1630   39.0830   28.4310 C   0  0  0  0  0  0  0  0  0  0  0  0
   32.3470   39.7950   27.0850 C   0  0  0  0  0  0  0  0  0  0  0  0
   33.3360   39.0000   26.2070 C   0  0  0  0  0  0  0  0  0  0  0  0
   34.6610   38.7690   26.9650 C   0  0  0  0  0  0  0  0  0  0  0  0
   34.3720   38.1060   28.3180 C   0  0  0  0  0  0  0  0  0  0  0  0
   33.4250   38.8690   29.1010 O   0  0  0  0  0  0  0  0  0  0  0  0
   31.6510   38.1020   28.2920 H   0  0  0  0  0  0  0  0  0  0  0  0
   31.6160   39.7290   29.1560 H   0  0  0  0  0  0  0  0  0  0  0  0
   32.7330   40.8280   27.2580 H   0  0  0  0  0  0  0  0  0  0  0  0
   31.3640   39.8730   26.5620 H   0  0  0  0  0  0  0  0  0  0  0  0
   32.8730   38.0080   25.9400 H   0  0  0  0  0  0  0  0  0  0  0  0
   35.3260   38.1000   26.3670 H   0  0  0  0  0  0  0  0  0  0  0  0
   35.1850   39.7420   27.1180 H   0  0  0  0  0  0  0  0  0  0  0  0
   33.9730   37.0750   28.1760 H   0  0  0  0  0  0  0  0  0  0  0  0
   35.2750   38.1130   28.9700 H   0  0  0  0  0  0  0  0  0  0  0  0
   34.1210   33.4920   25.6010 C   0  0  0  0  0  0  0  0  0  0  0  0
   34.6720   34.1120   24.2910 C   0  0  0  0  0  0  0  0  0  0  0  0
   33.5870   34.9900   23.6380 C   0  0  0  0  0  0  0  0  0  0  0  0
   32.3520   34.1610   23.2230 C   0  0  0  0  0  0  0  0  0  0  0  0
   32.1760   32.9330   24.1500 C   0  0  0  0  0  0  0  0  0  0  0  0
   34.3100   34.2060   26.4480 H   0  0  0  0  0  0  0  0  0  0  0  0
   34.6630   32.5280   25.7800 H   0  0  0  0  0  0  0  0  0  0  0  0
   34.9830   33.3010   23.5930 H   0  0  0  0  0  0  0  0  0  0  0  0
   35.5650   34.7290   24.5460 H   0  0  0  0  0  0  0  0  0  0  0  0
   33.2440   35.7420   24.4110 H   0  0  0  0  0  0  0  0  0  0  0  0
   31.4460   34.8100   23.3010 H   0  0  0  0  0  0  0  0  0  0  0  0
   32.4230   33.7900   22.1750 H   0  0  0  0  0  0  0  0  0  0  0  0
   31.0910   32.6560   24.1600 H   0  0  0  0  0  0  0  0  0  0  0  0
   32.7620   32.0670   23.7420 H   0  0  0  0  0  0  0  0  0  0  0  0
   32.6430   33.2760   25.5230 N   0  0  0  0  0  0  0  0  0  0  0  0
   31.7760   32.6980   26.8840 S   0  0  0  0  0  0  0  0  0  0  0  0
   32.3180   33.3680   28.0830 O   0  0  0  0  0  0  0  0  0  0  0  0
   31.8790   31.2310   26.9960 O   0  0  0  0  0  0  0  0  0  0  0  0
   30.1360   33.1670   26.5760 C   0  0  0  0  0  0  0  0  0  0  0  0
   30.0650   34.1360   26.0110 H   0  0  0  0  0  0  0  0  0  0  0  0
   29.5690   32.4000   25.9890 H   0  0  0  0  0  0  0  0  0  0  0  0
   29.5600   33.3290   27.5270 H   0  0  0  0  0  0  0  0  0  0  0  0
  1  3  2  0  0  0  0
  1  7  1  0  0  0  0
  1 21  1  0  0  0  0
  2 12  1  0  0  0  0
  2 17  2  0  0  0  0
  2 18  1  0  0  0  0
  3 13  1  0  0  0  0
  3 14  1  0  0  0  0
  4 16  2  0  0  0  0
  4 19  1  0  0  0  0
  4 20  1  0  0  0  0
  5  6  1  0  0  0  0
  5 10  1  0  0  0  0
  5 11  2  0  0  0  0
  6 12  2  0  0  0  0
  6 22  1  0  0  0  0
  7  8  2  0  0  0  0
  7 27  1  0  0  0  0
  8  9  1  0  0  0  0
  8 23  1  0  0  0  0
  9 13  2  0  0  0  0
  9 24  1  0  0  0  0
 10 18  1  0  0  0  0
 10 19  2  0  0  0  0
 11 16  1  0  0  0  0
 11 25  1  0  0  0  0
 12 15  1  0  0  0  0
 13 15  1  0  0  0  0
 18 45  1  0  0  0  0
 20 26  1  0  0  0  0
 20 30  1  0  0  0  0
 28 29  1  0  0  0  0
 28 33  1  0  0  0  0
 28 34  1  0  0  0  0
 28 35  1  0  0  0  0
 29 30  1  0  0  0  0
 29 36  1  0  0  0  0
 29 37  1  0  0  0  0
 30 31  1  0  0  0  0
 30 38  1  0  0  0  0
 31 32  1  0  0  0  0
 31 39  1  0  0  0  0
 31 40  1  0  0  0  0
 32 33  1  0  0  0  0
 32 41  1  0  0  0  0
 32 42  1  0  0  0  0
 43 44  1  0  0  0  0
 43 48  1  0  0  0  0
 43 49  1  0  0  0  0
 43 57  1  0  0  0  0
 44 45  1  0  0  0  0
 44 50  1  0  0  0  0
 44 51  1  0  0  0  0
 45 46  1  0  0  0  0
 45 52  1  0  0  0  0
 46 47  1  0  0  0  0
 46 53  1  0  0  0  0
 46 54  1  0  0  0  0
 47 55  1  0  0  0  0
 47 56  1  0  0  0  0
 47 57  1  0  0  0  0
 57 58  1  0  0  0  0
 58 59  2  0  0  0  0
 58 60  2  0  0  0  0
 58 61  1  0  0  0  0
 61 62  1  0  0  0  0
 61 63  1  0  0  0  0
 61 64  1  0  0  0  0
M  END
$$$$
