p38a_2u
 OpenBabel02232411163D
Structure written by MMmdl.
 64 68  0  0  0  0  0  0  0  0999 V2000
   38.3190   36.5770   17.1090 C   0  0  0  0  0  0  0  0  0  0  0  0
   34.5860   35.0450   21.1620 C   0  0  0  0  0  0  0  0  0  0  0  0
   37.5400   36.1100   18.1650 C   0  0  0  0  0  0  0  0  0  0  0  0
   33.9950   39.0720   23.7790 C   0  0  0  0  0  0  0  0  0  0  0  0
   34.6770   37.9010   21.3840 C   0  0  0  0  0  0  0  0  0  0  0  0
   35.0870   37.2820   20.1530 C   0  0  0  0  0  0  0  0  0  0  0  0
   37.6680   36.7350   15.8780 C   0  0  0  0  0  0  0  0  0  0  0  0
   36.3210   36.4280   15.6720 C   0  0  0  0  0  0  0  0  0  0  0  0
   35.5640   35.9460   16.7450 C   0  0  0  0  0  0  0  0  0  0  0  0
   34.3120   37.1060   22.5140 C   0  0  0  0  0  0  0  0  0  0  0  0
   34.6330   39.3120   21.5400 C   0  0  0  0  0  0  0  0  0  0  0  0
   35.0790   35.9320   20.0770 C   0  0  0  0  0  0  0  0  0  0  0  0
   36.1810   35.7780   17.9880 C   0  0  0  0  0  0  0  0  0  0  0  0
   38.0740   35.9760   19.3720 F   0  0  0  0  0  0  0  0  0  0  0  0
   35.4690   35.1310   19.0070 O   0  0  0  0  0  0  0  0  0  0  0  0
   34.3070   39.9140   22.6930 N   0  0  0  0  0  0  0  0  0  0  0  0
   34.4480   33.8440   21.0580 O   0  0  0  0  0  0  0  0  0  0  0  0
   34.2600   35.7020   22.4050 N   0  0  0  0  0  0  0  0  0  0  0  0
   34.0050   37.6940   23.7150 N   0  0  0  0  0  0  0  0  0  0  0  0
   33.5840   39.6870   24.9450 N   0  0  0  0  0  0  0  0  0  0  0  0
   39.3700   36.8460   17.2460 H   0  0  0  0  0  0  0  0  0  0  0  0
   35.4010   37.9260   19.3300 H   0  0  0  0  0  0  0  0  0  0  0  0
   35.8480   36.5740   14.6990 H   0  0  0  0  0  0  0  0  0  0  0  0
   34.5010   35.7210   16.6070 H   0  0  0  0  0  0  0  0  0  0  0  0
   34.8730   39.9670   20.6840 H   0  0  0  0  0  0  0  0  0  0  0  0
   33.6970   40.7180   25.0310 H   0  0  0  0  0  0  0  0  0  0  0  0
   38.3600   37.2440   14.8620 F   0  0  0  0  0  0  0  0  0  0  0  0
   32.4310   39.0620   28.5260 C   0  0  0  0  0  0  0  0  0  0  0  0
   32.4250   39.6440   27.1080 C   0  0  0  0  0  0  0  0  0  0  0  0
   33.5110   38.9600   26.2480 C   0  0  0  0  0  0  0  0  0  0  0  0
   34.8840   39.0090   26.9590 C   0  0  0  0  0  0  0  0  0  0  0  0
   34.7600   38.4690   28.3880 C   0  0  0  0  0  0  0  0  0  0  0  0
   33.7380   39.1700   29.1360 O   0  0  0  0  0  0  0  0  0  0  0  0
   32.1200   37.9910   28.5200 H   0  0  0  0  0  0  0  0  0  0  0  0
   31.7960   39.6650   29.2140 H   0  0  0  0  0  0  0  0  0  0  0  0
   32.6160   40.7420   27.1570 H   0  0  0  0  0  0  0  0  0  0  0  0
   31.4250   39.4770   26.6410 H   0  0  0  0  0  0  0  0  0  0  0  0
   33.2170   37.8900   26.0630 H   0  0  0  0  0  0  0  0  0  0  0  0
   35.6170   38.3870   26.3950 H   0  0  0  0  0  0  0  0  0  0  0  0
   35.2540   40.0620   26.9860 H   0  0  0  0  0  0  0  0  0  0  0  0
   34.5170   37.3810   28.3820 H   0  0  0  0  0  0  0  0  0  0  0  0
   35.6780   38.6820   28.9830 H   0  0  0  0  0  0  0  0  0  0  0  0
   31.8350   34.0450   24.9150 C   0  0  0  0  0  0  0  0  0  0  0  0
   32.3240   35.1240   23.9250 C   0  0  0  0  0  0  0  0  0  0  0  0
   33.7770   34.8140   23.5290 C   0  0  0  0  0  0  0  0  0  0  0  0
   34.6730   34.8670   24.7770 C   0  0  0  0  0  0  0  0  0  0  0  0
   34.1970   33.7900   25.7800 C   0  0  0  0  0  0  0  0  0  0  0  0
   31.7590   33.0590   24.3880 H   0  0  0  0  0  0  0  0  0  0  0  0
   30.8190   34.3600   25.2780 H   0  0  0  0  0  0  0  0  0  0  0  0
   32.2600   36.1210   24.4310 H   0  0  0  0  0  0  0  0  0  0  0  0
   31.6530   35.1350   23.0380 H   0  0  0  0  0  0  0  0  0  0  0  0
   33.8140   33.7590   23.1190 H   0  0  0  0  0  0  0  0  0  0  0  0
   35.7370   34.6800   24.5160 H   0  0  0  0  0  0  0  0  0  0  0  0
   34.5970   35.8700   25.2700 H   0  0  0  0  0  0  0  0  0  0  0  0
   34.4000   32.7720   25.3560 H   0  0  0  0  0  0  0  0  0  0  0  0
   34.7780   33.9320   26.7310 H   0  0  0  0  0  0  0  0  0  0  0  0
   32.7470   33.9570   26.0930 N   0  0  0  0  0  0  0  0  0  0  0  0
   32.1110   33.3450   27.5610 S   0  0  0  0  0  0  0  0  0  0  0  0
   33.1070   32.4630   28.2010 O   0  0  0  0  0  0  0  0  0  0  0  0
   30.8530   32.6200   27.2830 O   0  0  0  0  0  0  0  0  0  0  0  0
   31.8310   34.7700   28.4970 C   0  0  0  0  0  0  0  0  0  0  0  0
   32.7420   35.4230   28.5490 H   0  0  0  0  0  0  0  0  0  0  0  0
   31.0150   35.4100   28.0630 H   0  0  0  0  0  0  0  0  0  0  0  0
   31.5330   34.5460   29.5540 H   0  0  0  0  0  0  0  0  0  0  0  0
  1  3  2  0  0  0  0
  1  7  1  0  0  0  0
  1 21  1  0  0  0  0
  2 12  1  0  0  0  0
  2 17  2  0  0  0  0
  2 18  1  0  0  0  0
  3 13  1  0  0  0  0
  3 14  1  0  0  0  0
  4 16  2  0  0  0  0
  4 19  1  0  0  0  0
  4 20  1  0  0  0  0
  5  6  1  0  0  0  0
  5 10  1  0  0  0  0
  5 11  2  0  0  0  0
  6 12  2  0  0  0  0
  6 22  1  0  0  0  0
  7  8  2  0  0  0  0
  7 27  1  0  0  0  0
  8  9  1  0  0  0  0
  8 23  1  0  0  0  0
  9 13  2  0  0  0  0
  9 24  1  0  0  0  0
 10 18  1  0  0  0  0
 10 19  2  0  0  0  0
 11 16  1  0  0  0  0
 11 25  1  0  0  0  0
 12 15  1  0  0  0  0
 13 15  1  0  0  0  0
 18 45  1  0  0  0  0
 20 26  1  0  0  0  0
 20 30  1  0  0  0  0
 28 29  1  0  0  0  0
 28 33  1  0  0  0  0
 28 34  1  0  0  0  0
 28 35  1  0  0  0  0
 29 30  1  0  0  0  0
 29 36  1  0  0  0  0
 29 37  1  0  0  0  0
 30 31  1  0  0  0  0
 30 38  1  0  0  0  0
 31 32  1  0  0  0  0
 31 39  1  0  0  0  0
 31 40  1  0  0  0  0
 32 33  1  0  0  0  0
 32 41  1  0  0  0  0
 32 42  1  0  0  0  0
 43 44  1  0  0  0  0
 43 48  1  0  0  0  0
 43 49  1  0  0  0  0
 43 57  1  0  0  0  0
 44 45  1  0  0  0  0
 44 50  1  0  0  0  0
 44 51  1  0  0  0  0
 45 46  1  0  0  0  0
 45 52  1  0  0  0  0
 46 47  1  0  0  0  0
 46 53  1  0  0  0  0
 46 54  1  0  0  0  0
 47 55  1  0  0  0  0
 47 56  1  0  0  0  0
 47 57  1  0  0  0  0
 57 58  1  0  0  0  0
 58 59  2  0  0  0  0
 58 60  2  0  0  0  0
 58 61  1  0  0  0  0
 61 62  1  0  0  0  0
 61 63  1  0  0  0  0
 61 64  1  0  0  0  0
M  END
$$$$
