p38a_2g
 OpenBabel02232411163D
Structure written by MMmdl.
 46 49  0  0  0  0  0  0  0  0999 V2000
   32.3250   39.6530   26.9630 C   0  0  0  0  0  0  0  0  0  0  0  0
   32.2420   38.9750   28.3360 C   0  0  0  0  0  0  0  0  0  0  0  0
   34.5880   38.3980   28.2980 C   0  0  0  0  0  0  0  0  0  0  0  0
   34.7840   39.0370   26.9180 C   0  0  0  0  0  0  0  0  0  0  0  0
   38.3990   36.4480   17.2800 C   0  0  0  0  0  0  0  0  0  0  0  0
   33.5100   39.0260   29.0300 O   0  0  0  0  0  0  0  0  0  0  0  0
   34.5510   35.1090   21.0910 C   0  0  0  0  0  0  0  0  0  0  0  0
   37.4900   36.0400   18.2520 C   0  0  0  0  0  0  0  0  0  0  0  0
   33.9730   39.1600   23.6760 C   0  0  0  0  0  0  0  0  0  0  0  0
   33.4540   39.0060   26.1320 C   0  0  0  0  0  0  0  0  0  0  0  0
   34.5960   37.9890   21.2580 C   0  0  0  0  0  0  0  0  0  0  0  0
   34.9540   37.3460   20.0230 C   0  0  0  0  0  0  0  0  0  0  0  0
   37.9340   36.6190   15.9690 C   0  0  0  0  0  0  0  0  0  0  0  0
   36.5970   36.3740   15.6470 C   0  0  0  0  0  0  0  0  0  0  0  0
   35.6850   35.9520   16.6230 C   0  0  0  0  0  0  0  0  0  0  0  0
   34.2900   37.2010   22.4080 C   0  0  0  0  0  0  0  0  0  0  0  0
   34.5450   39.4000   21.4130 C   0  0  0  0  0  0  0  0  0  0  0  0
   34.9540   35.9940   19.9670 C   0  0  0  0  0  0  0  0  0  0  0  0
   36.1420   35.7790   17.9300 C   0  0  0  0  0  0  0  0  0  0  0  0
   33.9710   35.0090   23.5480 C   0  0  0  0  0  0  0  0  0  0  0  0
   37.8840   35.8880   19.5120 F   0  0  0  0  0  0  0  0  0  0  0  0
   35.2660   35.2050   18.8620 O   0  0  0  0  0  0  0  0  0  0  0  0
   34.2510   39.9980   22.5770 N   0  0  0  0  0  0  0  0  0  0  0  0
   34.4430   33.9030   21.0350 O   0  0  0  0  0  0  0  0  0  0  0  0
   34.2760   35.8000   22.3230 N   0  0  0  0  0  0  0  0  0  0  0  0
   33.9980   37.7800   23.6170 N   0  0  0  0  0  0  0  0  0  0  0  0
   33.5880   39.7640   24.8520 N   0  0  0  0  0  0  0  0  0  0  0  0
   31.3520   39.5400   26.4280 H   0  0  0  0  0  0  0  0  0  0  0  0
   32.5290   40.7430   27.0950 H   0  0  0  0  0  0  0  0  0  0  0  0
   31.5720   39.5380   29.0260 H   0  0  0  0  0  0  0  0  0  0  0  0
   31.9240   37.9110   28.2370 H   0  0  0  0  0  0  0  0  0  0  0  0
   34.3730   37.3080   28.2060 H   0  0  0  0  0  0  0  0  0  0  0  0
   35.4640   38.5870   28.9600 H   0  0  0  0  0  0  0  0  0  0  0  0
   35.1300   40.0920   27.0330 H   0  0  0  0  0  0  0  0  0  0  0  0
   35.5670   38.4680   26.3610 H   0  0  0  0  0  0  0  0  0  0  0  0
   39.4410   36.6630   17.5280 H   0  0  0  0  0  0  0  0  0  0  0  0
   33.1770   37.9380   25.9030 H   0  0  0  0  0  0  0  0  0  0  0  0
   35.2270   37.9740   19.1730 H   0  0  0  0  0  0  0  0  0  0  0  0
   36.2440   36.5300   14.6270 H   0  0  0  0  0  0  0  0  0  0  0  0
   34.6380   35.7810   16.3590 H   0  0  0  0  0  0  0  0  0  0  0  0
   34.7490   40.0560   20.5500 H   0  0  0  0  0  0  0  0  0  0  0  0
   34.7110   35.2550   24.3580 H   0  0  0  0  0  0  0  0  0  0  0  0
   32.9420   35.2600   23.9240 H   0  0  0  0  0  0  0  0  0  0  0  0
   34.0210   33.9120   23.3260 H   0  0  0  0  0  0  0  0  0  0  0  0
   33.6920   40.7930   24.9570 H   0  0  0  0  0  0  0  0  0  0  0  0
   38.6180   36.9710   15.1970 H   0  0  0  0  0  0  0  0  0  0  0  0
  1  2  1  0  0  0  0
  1 10  1  0  0  0  0
  1 28  1  0  0  0  0
  1 29  1  0  0  0  0
  2  6  1  0  0  0  0
  2 30  1  0  0  0  0
  2 31  1  0  0  0  0
  3  4  1  0  0  0  0
  3  6  1  0  0  0  0
  3 32  1  0  0  0  0
  3 33  1  0  0  0  0
  4 10  1  0  0  0  0
  4 34  1  0  0  0  0
  4 35  1  0  0  0  0
  5  8  2  0  0  0  0
  5 13  1  0  0  0  0
  5 36  1  0  0  0  0
  7 18  1  0  0  0  0
  7 24  2  0  0  0  0
  7 25  1  0  0  0  0
  8 19  1  0  0  0  0
  8 21  1  0  0  0  0
  9 23  2  0  0  0  0
  9 26  1  0  0  0  0
  9 27  1  0  0  0  0
 10 27  1  0  0  0  0
 10 37  1  0  0  0  0
 11 12  1  0  0  0  0
 11 16  1  0  0  0  0
 11 17  2  0  0  0  0
 12 18  2  0  0  0  0
 12 38  1  0  0  0  0
 13 14  2  0  0  0  0
 13 46  1  0  0  0  0
 14 15  1  0  0  0  0
 14 39  1  0  0  0  0
 15 19  2  0  0  0  0
 15 40  1  0  0  0  0
 16 25  1  0  0  0  0
 16 26  2  0  0  0  0
 17 23  1  0  0  0  0
 17 41  1  0  0  0  0
 18 22  1  0  0  0  0
 19 22  1  0  0  0  0
 20 25  1  0  0  0  0
 20 42  1  0  0  0  0
 20 43  1  0  0  0  0
 20 44  1  0  0  0  0
 27 45  1  0  0  0  0
M  END
$$$$
