p38a_2p
 OpenBabel02232411163D
Structure written by MMmdl.
 58 61  0  0  0  0  0  0  0  0999 V2000
   36.3190   35.9380   15.9730 C   0  0  0  0  0  0  0  0  0  0  0  0
   34.4010   35.1370   21.5000 C   0  0  0  0  0  0  0  0  0  0  0  0
   35.6470   35.5120   17.1140 C   0  0  0  0  0  0  0  0  0  0  0  0
   33.7920   39.3490   23.8040 C   0  0  0  0  0  0  0  0  0  0  0  0
   34.6700   38.0010   21.5590 C   0  0  0  0  0  0  0  0  0  0  0  0
   35.1750   37.2710   20.4280 C   0  0  0  0  0  0  0  0  0  0  0  0
   37.6160   36.4340   16.1620 C   0  0  0  0  0  0  0  0  0  0  0  0
   38.2520   36.4750   17.4050 C   0  0  0  0  0  0  0  0  0  0  0  0
   37.5440   36.0690   18.5420 C   0  0  0  0  0  0  0  0  0  0  0  0
   34.1130   37.3100   22.6730 C   0  0  0  0  0  0  0  0  0  0  0  0
   34.7170   39.4180   21.6450 C   0  0  0  0  0  0  0  0  0  0  0  0
   35.0640   35.9230   20.4230 C   0  0  0  0  0  0  0  0  0  0  0  0
   36.2390   35.5900   18.3920 C   0  0  0  0  0  0  0  0  0  0  0  0
   34.4250   35.0030   17.0260 F   0  0  0  0  0  0  0  0  0  0  0  0
   35.4950   35.0330   19.4410 O   0  0  0  0  0  0  0  0  0  0  0  0
   34.3060   40.1000   22.7220 N   0  0  0  0  0  0  0  0  0  0  0  0
   34.1740   33.9480   21.4600 O   0  0  0  0  0  0  0  0  0  0  0  0
   33.9880   35.9100   22.6450 N   0  0  0  0  0  0  0  0  0  0  0  0
   33.6720   37.9780   23.7910 N   0  0  0  0  0  0  0  0  0  0  0  0
   33.3510   40.0890   24.8780 N   0  0  0  0  0  0  0  0  0  0  0  0
   35.8560   35.9140   14.9830 H   0  0  0  0  0  0  0  0  0  0  0  0
   35.6390   37.8370   19.6170 H   0  0  0  0  0  0  0  0  0  0  0  0
   39.2770   36.8470   17.4970 H   0  0  0  0  0  0  0  0  0  0  0  0
   38.0060   36.1500   19.5280 H   0  0  0  0  0  0  0  0  0  0  0  0
   35.1050   40.0020   20.7950 H   0  0  0  0  0  0  0  0  0  0  0  0
   33.6120   41.0950   24.9150 H   0  0  0  0  0  0  0  0  0  0  0  0
   38.2590   36.9210   15.1020 F   0  0  0  0  0  0  0  0  0  0  0  0
   33.4130   38.3220   28.3080 C   0  0  0  0  0  0  0  0  0  0  0  0
   33.9590   38.7590   26.9410 C   0  0  0  0  0  0  0  0  0  0  0  0
   32.8820   39.5720   26.1970 C   0  0  0  0  0  0  0  0  0  0  0  0
   31.5870   38.7450   26.0820 C   0  0  0  0  0  0  0  0  0  0  0  0
   31.1320   38.3370   27.4880 C   0  0  0  0  0  0  0  0  0  0  0  0
   32.1620   37.6110   28.1980 O   0  0  0  0  0  0  0  0  0  0  0  0
   33.2710   39.2020   28.9770 H   0  0  0  0  0  0  0  0  0  0  0  0
   34.0770   37.5570   28.7730 H   0  0  0  0  0  0  0  0  0  0  0  0
   34.2380   37.8570   26.3450 H   0  0  0  0  0  0  0  0  0  0  0  0
   34.8760   39.3780   27.0900 H   0  0  0  0  0  0  0  0  0  0  0  0
   32.6640   40.5100   26.7930 H   0  0  0  0  0  0  0  0  0  0  0  0
   30.7930   39.3460   25.5830 H   0  0  0  0  0  0  0  0  0  0  0  0
   31.7810   37.8290   25.4720 H   0  0  0  0  0  0  0  0  0  0  0  0
   30.8450   39.2220   28.0960 H   0  0  0  0  0  0  0  0  0  0  0  0
   30.3130   37.5830   27.4460 H   0  0  0  0  0  0  0  0  0  0  0  0
   33.4560   35.2000   23.8530 C   0  0  0  0  0  0  0  0  0  0  0  0
   32.6100   35.8080   24.2760 H   0  0  0  0  0  0  0  0  0  0  0  0
   33.0690   34.1910   23.5350 H   0  0  0  0  0  0  0  0  0  0  0  0
   34.5550   35.0320   24.9230 C   0  0  0  0  0  0  0  0  0  0  0  0
   35.2930   34.2570   24.6060 H   0  0  0  0  0  0  0  0  0  0  0  0
   35.1160   36.0010   25.0270 H   0  0  0  0  0  0  0  0  0  0  0  0
   33.9670   34.7000   26.2990 C   0  0  0  0  0  0  0  0  0  0  0  0
   33.2290   35.5080   26.5760 H   0  0  0  0  0  0  0  0  0  0  0  0
   34.7920   34.7980   27.0620 H   0  0  0  0  0  0  0  0  0  0  0  0
   33.2340   33.1110   26.4420 S   0  0  0  0  0  0  0  0  0  0  0  0
   32.4620   32.7600   25.2290 O   0  0  0  0  0  0  0  0  0  0  0  0
   32.3690   33.0290   27.6460 O   0  0  0  0  0  0  0  0  0  0  0  0
   34.6030   32.0430   26.6120 C   0  0  0  0  0  0  0  0  0  0  0  0
   35.1310   32.2270   27.5870 H   0  0  0  0  0  0  0  0  0  0  0  0
   34.2950   30.9630   26.6110 H   0  0  0  0  0  0  0  0  0  0  0  0
   35.3520   32.1740   25.7940 H   0  0  0  0  0  0  0  0  0  0  0  0
  1  3  2  0  0  0  0
  1  7  1  0  0  0  0
  1 21  1  0  0  0  0
  2 12  1  0  0  0  0
  2 17  2  0  0  0  0
  2 18  1  0  0  0  0
  3 13  1  0  0  0  0
  3 14  1  0  0  0  0
  4 16  2  0  0  0  0
  4 19  1  0  0  0  0
  4 20  1  0  0  0  0
  5  6  1  0  0  0  0
  5 10  1  0  0  0  0
  5 11  2  0  0  0  0
  6 12  2  0  0  0  0
  6 22  1  0  0  0  0
  7  8  2  0  0  0  0
  7 27  1  0  0  0  0
  8  9  1  0  0  0  0
  8 23  1  0  0  0  0
  9 13  2  0  0  0  0
  9 24  1  0  0  0  0
 10 18  1  0  0  0  0
 10 19  2  0  0  0  0
 11 16  1  0  0  0  0
 11 25  1  0  0  0  0
 12 15  1  0  0  0  0
 13 15  1  0  0  0  0
 18 43  1  0  0  0  0
 20 26  1  0  0  0  0
 20 30  1  0  0  0  0
 28 29  1  0  0  0  0
 28 33  1  0  0  0  0
 28 34  1  0  0  0  0
 28 35  1  0  0  0  0
 29 30  1  0  0  0  0
 29 36  1  0  0  0  0
 29 37  1  0  0  0  0
 30 31  1  0  0  0  0
 30 38  1  0  0  0  0
 31 32  1  0  0  0  0
 31 39  1  0  0  0  0
 31 40  1  0  0  0  0
 32 33  1  0  0  0  0
 32 41  1  0  0  0  0
 32 42  1  0  0  0  0
 43 44  1  0  0  0  0
 43 45  1  0  0  0  0
 43 46  1  0  0  0  0
 46 47  1  0  0  0  0
 46 48  1  0  0  0  0
 46 49  1  0  0  0  0
 49 50  1  0  0  0  0
 49 51  1  0  0  0  0
 49 52  1  0  0  0  0
 52 53  2  0  0  0  0
 52 54  2  0  0  0  0
 52 55  1  0  0  0  0
 55 56  1  0  0  0  0
 55 57  1  0  0  0  0
 55 58  1  0  0  0  0
M  END
$$$$
