CAT-13d
 OpenBabel02232411143D
Structure written by MMmdl.
 43 46  0  0  1  0  0  0  0  0999 V2000
   11.6600   -2.2890    1.2480 C   0  0  0  0  0  0  0  0  0  0  0  0
   12.9990   -2.4070    0.6360 N   0  0  0  0  0  0  0  0  0  0  0  0
   14.1850   -2.3810    1.3640 C   0  0  0  0  0  0  0  0  0  0  0  0
   14.3200   -2.4750    2.7190 N   0  0  0  0  0  0  0  0  0  0  0  0
   15.2790   -2.3230    0.4910 N   0  3  0  0  0  0  0  0  0  0  0  0
   14.8370   -2.6360   -0.9200 C   0  0  1  0  0  0  0  0  0  0  0  0
   15.4180   -1.5960   -1.8550 C   0  0  0  0  0  0  0  0  0  0  0  0
   16.2390   -1.9480   -2.9330 C   0  0  0  0  0  0  0  0  0  0  0  0
   16.7110   -0.9480   -3.7900 C   0  0  0  0  0  0  0  0  0  0  0  0
   16.4070    0.3960   -3.5590 C   0  0  0  0  0  0  0  0  0  0  0  0
   15.6320    0.7620   -2.4460 C   0  0  0  0  0  0  0  0  0  0  0  0
   15.3550    2.1760   -2.1040 C   0  0  0  0  0  0  0  0  0  0  0  0
   14.9650    3.1110   -3.0740 C   0  0  0  0  0  0  0  0  0  0  0  0
   14.6310    4.4170   -2.6970 C   0  0  0  0  0  0  0  0  0  0  0  0
   14.6650    4.8030   -1.3540 C   0  0  0  0  0  0  0  0  0  0  0  0
   15.0700    3.8650   -0.4010 C   0  0  0  0  0  0  0  0  0  0  0  0
   15.0490    4.2820    1.2730 Cl  0  0  0  0  0  0  0  0  0  0  0  0
   15.4420    2.5710   -0.7570 C   0  0  0  0  0  0  0  0  0  0  0  0
   15.1120   -0.2470   -1.6220 C   0  0  0  0  0  0  0  0  0  0  0  0
   15.0780   -4.0860   -1.3030 C   0  0  0  0  0  0  0  0  0  0  0  0
   16.3080   -4.8240   -0.8040 C   0  0  0  0  0  0  0  0  0  0  0  0
   14.9440   -5.1990   -0.2690 C   0  0  0  0  0  0  0  0  0  0  0  0
   13.2830   -2.4740   -0.8130 C   0  0  0  0  0  0  0  0  0  0  0  0
   12.4210   -2.4220   -1.6300 O   0  0  0  0  0  0  0  0  0  0  0  0
   10.9280   -2.8980    0.6510 H   0  0  0  0  0  0  0  0  0  0  0  0
   11.6720   -2.6820    2.3000 H   0  0  0  0  0  0  0  0  0  0  0  0
   11.3480   -1.2120    1.2530 H   0  0  0  0  0  0  0  0  0  0  0  0
   13.5980   -2.0740    3.3670 H   0  0  0  0  0  0  0  0  0  0  0  0
   16.2130   -2.6580    0.8550 H   0  0  0  0  0  0  0  0  0  0  0  0
   16.5130   -2.9900   -3.1040 H   0  0  0  0  0  0  0  0  0  0  0  0
   17.3360   -1.2250   -4.6470 H   0  0  0  0  0  0  0  0  0  0  0  0
   16.7790    1.1580   -4.2490 H   0  0  0  0  0  0  0  0  0  0  0  0
   14.9030    2.8180   -4.1270 H   0  0  0  0  0  0  0  0  0  0  0  0
   14.3160    5.1360   -3.4640 H   0  0  0  0  0  0  0  0  0  0  0  0
   14.3600    5.8090   -1.0590 H   0  0  0  0  0  0  0  0  0  0  0  0
   15.7840    1.8600   -0.0020 H   0  0  0  0  0  0  0  0  0  0  0  0
   14.4660    0.0140   -0.7850 H   0  0  0  0  0  0  0  0  0  0  0  0
   14.7280   -4.3050   -2.3280 H   0  0  0  0  0  0  0  0  0  0  0  0
   16.8410   -5.4770   -1.4920 H   0  0  0  0  0  0  0  0  0  0  0  0
   17.0120   -4.3060   -0.1500 H   0  0  0  0  0  0  0  0  0  0  0  0
   14.6980   -4.9450    0.7690 H   0  0  0  0  0  0  0  0  0  0  0  0
   14.4730   -6.1410   -0.5790 H   0  0  0  0  0  0  0  0  0  0  0  0
   15.2960   -2.4050    3.1250 H   0  0  0  0  0  0  0  0  0  0  0  0
  1  2  1  0  0  0  0
  1 25  1  0  0  0  0
  1 26  1  0  0  0  0
  1 27  1  0  0  0  0
  2  3  1  0  0  0  0
  2 23  1  0  0  0  0
  3  4  1  0  0  0  0
  3  5  2  0  0  0  0
  4 28  1  0  0  0  0
  4 43  1  0  0  0  0
  5  6  1  0  0  0  0
  5 29  1  0  0  0  0
  6  7  1  6  0  0  0
  6 20  1  0  0  0  0
  6 23  1  0  0  0  0
  7  8  2  0  0  0  0
  7 19  1  0  0  0  0
  8  9  1  0  0  0  0
  8 30  1  0  0  0  0
  9 10  2  0  0  0  0
  9 31  1  0  0  0  0
 10 11  1  0  0  0  0
 10 32  1  0  0  0  0
 11 12  1  0  0  0  0
 11 19  2  0  0  0  0
 12 13  2  0  0  0  0
 12 18  1  0  0  0  0
 13 14  1  0  0  0  0
 13 33  1  0  0  0  0
 14 15  2  0  0  0  0
 14 34  1  0  0  0  0
 15 16  1  0  0  0  0
 15 35  1  0  0  0  0
 16 18  2  0  0  0  0
 16 17  1  0  0  0  0
 18 36  1  0  0  0  0
 19 37  1  0  0  0  0
 20 21  1  0  0  0  0
 20 22  1  0  0  0  0
 20 38  1  0  0  0  0
 21 22  1  0  0  0  0
 21 39  1  0  0  0  0
 21 40  1  0  0  0  0
 22 41  1  0  0  0  0
 22 42  1  0  0  0  0
 23 24  2  0  0  0  0
M  CHG  1   5   1
M  END
$$$$
