p38a_2gg
 OpenBabel02232411163D
Structure written by MMmdl.
 48 51  0  0  0  0  0  0  0  0999 V2000
   38.2550   36.5340   17.1510 C   0  0  0  0  0  0  0  0  0  0  0  0
   34.5860   35.1360   21.2290 C   0  0  0  0  0  0  0  0  0  0  0  0
   37.4500   36.0830   18.1940 C   0  0  0  0  0  0  0  0  0  0  0  0
   34.2070   39.2290   23.7780 C   0  0  0  0  0  0  0  0  0  0  0  0
   34.6530   38.0130   21.3430 C   0  0  0  0  0  0  0  0  0  0  0  0
   34.9860   37.3490   20.1120 C   0  0  0  0  0  0  0  0  0  0  0  0
   37.6250   36.7100   15.9110 C   0  0  0  0  0  0  0  0  0  0  0  0
   36.2750   36.4310   15.6860 C   0  0  0  0  0  0  0  0  0  0  0  0
   35.4910   35.9660   16.7470 C   0  0  0  0  0  0  0  0  0  0  0  0
   34.4000   37.2510   22.5220 C   0  0  0  0  0  0  0  0  0  0  0  0
   34.5850   39.4260   21.4680 C   0  0  0  0  0  0  0  0  0  0  0  0
   34.9920   35.9960   20.0850 C   0  0  0  0  0  0  0  0  0  0  0  0
   36.0850   35.7850   17.9990 C   0  0  0  0  0  0  0  0  0  0  0  0
   34.1330   35.0780   23.7150 C   0  0  0  0  0  0  0  0  0  0  0  0
   37.9650   35.9290   19.4080 F   0  0  0  0  0  0  0  0  0  0  0  0
   35.3360   35.1730   19.0150 O   0  0  0  0  0  0  0  0  0  0  0  0
   34.3630   40.0430   22.6380 N   0  0  0  0  0  0  0  0  0  0  0  0
   34.4320   33.9360   21.1910 O   0  0  0  0  0  0  0  0  0  0  0  0
   34.3680   35.8500   22.4610 N   0  0  0  0  0  0  0  0  0  0  0  0
   34.1720   37.8550   23.7370 N   0  0  0  0  0  0  0  0  0  0  0  0
   34.1670   39.9010   24.9880 N   0  0  0  0  0  0  0  0  0  0  0  0
   39.3110   36.7770   17.3010 H   0  0  0  0  0  0  0  0  0  0  0  0
   35.2390   37.9640   19.2460 H   0  0  0  0  0  0  0  0  0  0  0  0
   35.8200   36.5870   14.7050 H   0  0  0  0  0  0  0  0  0  0  0  0
   34.4270   35.7630   16.5910 H   0  0  0  0  0  0  0  0  0  0  0  0
   34.7070   40.0680   20.5790 H   0  0  0  0  0  0  0  0  0  0  0  0
   34.9600   35.2850   24.4460 H   0  0  0  0  0  0  0  0  0  0  0  0
   33.1600   35.3960   24.1780 H   0  0  0  0  0  0  0  0  0  0  0  0
   34.0960   33.9810   23.4930 H   0  0  0  0  0  0  0  0  0  0  0  0
   34.0040   40.9310   24.9610 H   0  0  0  0  0  0  0  0  0  0  0  0
   38.3430   37.2060   14.9070 F   0  0  0  0  0  0  0  0  0  0  0  0
   34.3910   37.7130   28.1460 C   0  0  0  0  0  0  0  0  0  0  0  0
   34.6120   38.0880   26.6800 C   0  0  0  0  0  0  0  0  0  0  0  0
   33.7720   39.3260   26.3050 C   0  0  0  0  0  0  0  0  0  0  0  0
   32.2500   39.0390   26.3720 C   0  0  0  0  0  0  0  0  0  0  0  0
   31.8200   38.7520   27.8120 C   0  0  0  0  0  0  0  0  0  0  0  0
   34.7660   38.5530   28.7930 H   0  0  0  0  0  0  0  0  0  0  0  0
   35.0230   36.8200   28.3910 H   0  0  0  0  0  0  0  0  0  0  0  0
   34.3590   37.2250   26.0140 H   0  0  0  0  0  0  0  0  0  0  0  0
   35.6930   38.3370   26.5250 H   0  0  0  0  0  0  0  0  0  0  0  0
   34.0080   40.1530   27.0430 H   0  0  0  0  0  0  0  0  0  0  0  0
   31.7020   39.9440   26.0040 H   0  0  0  0  0  0  0  0  0  0  0  0
   31.9920   38.1860   25.6990 H   0  0  0  0  0  0  0  0  0  0  0  0
   32.0100   39.6720   28.4310 H   0  0  0  0  0  0  0  0  0  0  0  0
   30.7160   38.5700   27.8320 H   0  0  0  0  0  0  0  0  0  0  0  0
   32.7010   37.3890   28.4960 S   0  0  0  0  0  0  0  0  0  0  0  0
   32.2650   36.1130   27.8850 O   0  0  0  0  0  0  0  0  0  0  0  0
   32.4970   37.3380   29.9700 O   0  0  0  0  0  0  0  0  0  0  0  0
  1  3  2  0  0  0  0
  1  7  1  0  0  0  0
  1 22  1  0  0  0  0
  2 12  1  0  0  0  0
  2 18  2  0  0  0  0
  2 19  1  0  0  0  0
  3 13  1  0  0  0  0
  3 15  1  0  0  0  0
  4 17  2  0  0  0  0
  4 20  1  0  0  0  0
  4 21  1  0  0  0  0
  5  6  1  0  0  0  0
  5 10  1  0  0  0  0
  5 11  2  0  0  0  0
  6 12  2  0  0  0  0
  6 23  1  0  0  0  0
  7  8  2  0  0  0  0
  7 31  1  0  0  0  0
  8  9  1  0  0  0  0
  8 24  1  0  0  0  0
  9 13  2  0  0  0  0
  9 25  1  0  0  0  0
 10 19  1  0  0  0  0
 10 20  2  0  0  0  0
 11 17  1  0  0  0  0
 11 26  1  0  0  0  0
 12 16  1  0  0  0  0
 13 16  1  0  0  0  0
 14 19  1  0  0  0  0
 14 27  1  0  0  0  0
 14 28  1  0  0  0  0
 14 29  1  0  0  0  0
 21 30  1  0  0  0  0
 21 34  1  0  0  0  0
 32 33  1  0  0  0  0
 32 37  1  0  0  0  0
 32 38  1  0  0  0  0
 32 46  1  0  0  0  0
 33 34  1  0  0  0  0
 33 39  1  0  0  0  0
 33 40  1  0  0  0  0
 34 35  1  0  0  0  0
 34 41  1  0  0  0  0
 35 36  1  0  0  0  0
 35 42  1  0  0  0  0
 35 43  1  0  0  0  0
 36 44  1  0  0  0  0
 36 45  1  0  0  0  0
 36 46  1  0  0  0  0
 46 47  2  0  0  0  0
 46 48  2  0  0  0  0
M  END
$$$$
