p38a_2z
 OpenBabel02232411163D
Structure written by MMmdl.
 45 47  0  0  0  0  0  0  0  0999 V2000
   36.3870   36.0860   15.7640 C   0  0  0  0  0  0  0  0  0  0  0  0
   34.5170   34.9440   21.2100 C   0  0  0  0  0  0  0  0  0  0  0  0
   35.7560   35.5930   16.9010 C   0  0  0  0  0  0  0  0  0  0  0  0
   33.7980   38.9440   23.8420 C   0  0  0  0  0  0  0  0  0  0  0  0
   32.6380   38.8870   26.1150 C   0  0  0  0  0  0  0  0  0  0  0  0
   34.7420   37.8000   21.5070 C   0  0  0  0  0  0  0  0  0  0  0  0
   35.2830   37.1690   20.3320 C   0  0  0  0  0  0  0  0  0  0  0  0
   37.6760   36.6050   15.9420 C   0  0  0  0  0  0  0  0  0  0  0  0
   38.3390   36.6160   17.1720 C   0  0  0  0  0  0  0  0  0  0  0  0
   37.6680   36.1500   18.3080 C   0  0  0  0  0  0  0  0  0  0  0  0
   34.1720   37.0090   22.5490 C   0  0  0  0  0  0  0  0  0  0  0  0
   34.7550   39.2070   21.7090 C   0  0  0  0  0  0  0  0  0  0  0  0
   35.1970   35.8240   20.2210 C   0  0  0  0  0  0  0  0  0  0  0  0
   36.3750   35.6390   18.1670 C   0  0  0  0  0  0  0  0  0  0  0  0
   33.4990   34.8040   23.5110 C   0  0  0  0  0  0  0  0  0  0  0  0
   34.5480   35.0500   16.8200 F   0  0  0  0  0  0  0  0  0  0  0  0
   35.6780   35.0050   19.2010 O   0  0  0  0  0  0  0  0  0  0  0  0
   34.3020   39.7900   22.8280 N   0  0  0  0  0  0  0  0  0  0  0  0
   34.3220   33.7560   21.0690 O   0  0  0  0  0  0  0  0  0  0  0  0
   34.0760   35.6140   22.4020 N   0  0  0  0  0  0  0  0  0  0  0  0
   33.7030   37.5730   23.7080 N   0  0  0  0  0  0  0  0  0  0  0  0
   33.4560   39.5420   25.0350 N   0  0  0  0  0  0  0  0  0  0  0  0
   35.8980   36.0890   14.7870 H   0  0  0  0  0  0  0  0  0  0  0  0
   32.2770   39.9960   27.1230 C   0  0  0  0  0  0  0  0  0  0  0  0
   35.7550   37.8020   19.5770 H   0  0  0  0  0  0  0  0  0  0  0  0
   39.3550   37.0080   17.2580 H   0  0  0  0  0  0  0  0  0  0  0  0
   38.1520   36.2100   19.2850 H   0  0  0  0  0  0  0  0  0  0  0  0
   35.1450   39.8700   20.9180 H   0  0  0  0  0  0  0  0  0  0  0  0
   34.0680   34.9930   24.4610 H   0  0  0  0  0  0  0  0  0  0  0  0
   32.4250   35.0830   23.6780 H   0  0  0  0  0  0  0  0  0  0  0  0
   33.5600   33.7110   23.2660 H   0  0  0  0  0  0  0  0  0  0  0  0
   33.4810   40.5840   25.0860 H   0  0  0  0  0  0  0  0  0  0  0  0
   38.2820   37.1450   14.8860 F   0  0  0  0  0  0  0  0  0  0  0  0
   31.3180   38.2770   25.5370 C   0  0  0  0  0  0  0  0  0  0  0  0
   33.4500   37.7880   26.8120 C   0  0  0  0  0  0  0  0  0  0  0  0
   30.7170   39.1410   24.5690 O   0  0  0  0  0  0  0  0  0  0  0  0
   30.2740   39.9040   25.0280 H   0  0  0  0  0  0  0  0  0  0  0  0
   31.5210   37.3480   24.9550 H   0  0  0  0  0  0  0  0  0  0  0  0
   30.6020   38.0800   26.3660 H   0  0  0  0  0  0  0  0  0  0  0  0
   32.8820   37.3960   27.6900 H   0  0  0  0  0  0  0  0  0  0  0  0
   33.6640   36.9320   26.1310 H   0  0  0  0  0  0  0  0  0  0  0  0
   34.4200   38.1930   27.1820 H   0  0  0  0  0  0  0  0  0  0  0  0
   31.6860   39.5730   27.9650 H   0  0  0  0  0  0  0  0  0  0  0  0
   33.1950   40.4600   27.5570 H   0  0  0  0  0  0  0  0  0  0  0  0
   31.6920   40.7880   26.6140 H   0  0  0  0  0  0  0  0  0  0  0  0
  1  3  2  0  0  0  0
  1  8  1  0  0  0  0
  1 23  1  0  0  0  0
  2 13  1  0  0  0  0
  2 19  2  0  0  0  0
  2 20  1  0  0  0  0
  3 14  1  0  0  0  0
  3 16  1  0  0  0  0
  4 18  2  0  0  0  0
  4 21  1  0  0  0  0
  4 22  1  0  0  0  0
  5 22  1  0  0  0  0
  5 24  1  0  0  0  0
  5 34  1  0  0  0  0
  5 35  1  0  0  0  0
  6  7  1  0  0  0  0
  6 11  1  0  0  0  0
  6 12  2  0  0  0  0
  7 13  2  0  0  0  0
  7 25  1  0  0  0  0
  8  9  2  0  0  0  0
  8 33  1  0  0  0  0
  9 10  1  0  0  0  0
  9 26  1  0  0  0  0
 10 14  2  0  0  0  0
 10 27  1  0  0  0  0
 11 20  1  0  0  0  0
 11 21  2  0  0  0  0
 12 18  1  0  0  0  0
 12 28  1  0  0  0  0
 13 17  1  0  0  0  0
 14 17  1  0  0  0  0
 15 20  1  0  0  0  0
 15 29  1  0  0  0  0
 15 30  1  0  0  0  0
 15 31  1  0  0  0  0
 22 32  1  0  0  0  0
 24 43  1  0  0  0  0
 24 44  1  0  0  0  0
 24 45  1  0  0  0  0
 34 36  1  0  0  0  0
 34 38  1  0  0  0  0
 34 39  1  0  0  0  0
 35 40  1  0  0  0  0
 35 41  1  0  0  0  0
 35 42  1  0  0  0  0
 36 37  1  0  0  0  0
M  END
$$$$
