p38a_2m
 OpenBabel02232411163D
Structure written by MMmdl.
 50 54  0  0  0  0  0  0  0  0999 V2000
   38.2850   36.5300   17.1920 C   0  0  0  0  0  0  0  0  0  0  0  0
   34.5320   35.1090   21.2810 C   0  0  0  0  0  0  0  0  0  0  0  0
   37.5090   36.0790   18.2560 C   0  0  0  0  0  0  0  0  0  0  0  0
   33.7280   39.2330   23.6860 C   0  0  0  0  0  0  0  0  0  0  0  0
   34.5920   37.9870   21.3800 C   0  0  0  0  0  0  0  0  0  0  0  0
   35.0390   37.3140   20.1910 C   0  0  0  0  0  0  0  0  0  0  0  0
   37.6310   36.6760   15.9610 C   0  0  0  0  0  0  0  0  0  0  0  0
   36.2830   36.3680   15.7640 C   0  0  0  0  0  0  0  0  0  0  0  0
   35.5280   35.9040   16.8460 C   0  0  0  0  0  0  0  0  0  0  0  0
   34.1830   37.2400   22.5230 C   0  0  0  0  0  0  0  0  0  0  0  0
   34.5550   39.4030   21.4910 C   0  0  0  0  0  0  0  0  0  0  0  0
   35.0280   35.9630   20.1670 C   0  0  0  0  0  0  0  0  0  0  0  0
   36.1460   35.7500   18.0900 C   0  0  0  0  0  0  0  0  0  0  0  0
   38.0480   35.9550   19.4620 F   0  0  0  0  0  0  0  0  0  0  0  0
   35.4380   35.1290   19.1270 O   0  0  0  0  0  0  0  0  0  0  0  0
   34.1600   40.0340   22.6040 N   0  0  0  0  0  0  0  0  0  0  0  0
   34.3850   33.9100   21.2300 O   0  0  0  0  0  0  0  0  0  0  0  0
   34.2080   35.8320   22.4870 N   0  0  0  0  0  0  0  0  0  0  0  0
   33.7460   37.8540   23.6720 N   0  0  0  0  0  0  0  0  0  0  0  0
   33.2260   39.9340   24.7600 N   0  0  0  0  0  0  0  0  0  0  0  0
   39.3390   36.7950   17.3190 H   0  0  0  0  0  0  0  0  0  0  0  0
   35.3770   37.9230   19.3490 H   0  0  0  0  0  0  0  0  0  0  0  0
   35.8090   36.5000   14.7890 H   0  0  0  0  0  0  0  0  0  0  0  0
   34.4640   35.6810   16.7120 H   0  0  0  0  0  0  0  0  0  0  0  0
   34.8580   40.0320   20.6370 H   0  0  0  0  0  0  0  0  0  0  0  0
   33.4180   40.9560   24.7990 H   0  0  0  0  0  0  0  0  0  0  0  0
   38.3230   37.1710   14.9380 F   0  0  0  0  0  0  0  0  0  0  0  0
   33.3080   38.2390   28.2200 C   0  0  0  0  0  0  0  0  0  0  0  0
   33.8700   38.7040   26.8710 C   0  0  0  0  0  0  0  0  0  0  0  0
   32.7500   39.3930   26.0670 C   0  0  0  0  0  0  0  0  0  0  0  0
   31.5400   38.4540   25.9140 C   0  0  0  0  0  0  0  0  0  0  0  0
   31.0820   37.9830   27.3020 C   0  0  0  0  0  0  0  0  0  0  0  0
   32.1590   37.3790   28.0540 O   0  0  0  0  0  0  0  0  0  0  0  0
   33.0200   39.1090   28.8540 H   0  0  0  0  0  0  0  0  0  0  0  0
   34.0280   37.5710   28.7490 H   0  0  0  0  0  0  0  0  0  0  0  0
   34.2650   37.8240   26.3060 H   0  0  0  0  0  0  0  0  0  0  0  0
   34.7110   39.4180   27.0450 H   0  0  0  0  0  0  0  0  0  0  0  0
   32.4190   40.3180   26.6320 H   0  0  0  0  0  0  0  0  0  0  0  0
   30.7020   38.9910   25.4090 H   0  0  0  0  0  0  0  0  0  0  0  0
   31.8170   37.5660   25.2950 H   0  0  0  0  0  0  0  0  0  0  0  0
   30.6620   38.8250   27.8960 H   0  0  0  0  0  0  0  0  0  0  0  0
   30.3570   37.1410   27.2220 H   0  0  0  0  0  0  0  0  0  0  0  0
   33.9140   35.0890   23.7320 C   0  0  0  0  0  0  0  0  0  0  0  0
   34.9170   35.1660   24.8810 C   0  0  0  0  0  0  0  0  0  0  0  0
   34.7480   33.8720   24.1140 C   0  0  0  0  0  0  0  0  0  0  0  0
   32.8330   35.1010   23.9660 H   0  0  0  0  0  0  0  0  0  0  0  0
   35.8370   35.7480   24.7610 H   0  0  0  0  0  0  0  0  0  0  0  0
   34.5220   35.2390   25.9050 H   0  0  0  0  0  0  0  0  0  0  0  0
   35.5660   33.5230   23.4770 H   0  0  0  0  0  0  0  0  0  0  0  0
   34.2220   33.0360   24.6040 H   0  0  0  0  0  0  0  0  0  0  0  0
  1  3  2  0  0  0  0
  1  7  1  0  0  0  0
  1 21  1  0  0  0  0
  2 12  1  0  0  0  0
  2 17  2  0  0  0  0
  2 18  1  0  0  0  0
  3 13  1  0  0  0  0
  3 14  1  0  0  0  0
  4 16  2  0  0  0  0
  4 19  1  0  0  0  0
  4 20  1  0  0  0  0
  5  6  1  0  0  0  0
  5 10  1  0  0  0  0
  5 11  2  0  0  0  0
  6 12  2  0  0  0  0
  6 22  1  0  0  0  0
  7  8  2  0  0  0  0
  7 27  1  0  0  0  0
  8  9  1  0  0  0  0
  8 23  1  0  0  0  0
  9 13  2  0  0  0  0
  9 24  1  0  0  0  0
 10 18  1  0  0  0  0
 10 19  2  0  0  0  0
 11 16  1  0  0  0  0
 11 25  1  0  0  0  0
 12 15  1  0  0  0  0
 13 15  1  0  0  0  0
 18 43  1  0  0  0  0
 20 26  1  0  0  0  0
 20 30  1  0  0  0  0
 28 29  1  0  0  0  0
 28 33  1  0  0  0  0
 28 34  1  0  0  0  0
 28 35  1  0  0  0  0
 29 30  1  0  0  0  0
 29 36  1  0  0  0  0
 29 37  1  0  0  0  0
 30 31  1  0  0  0  0
 30 38  1  0  0  0  0
 31 32  1  0  0  0  0
 31 39  1  0  0  0  0
 31 40  1  0  0  0  0
 32 33  1  0  0  0  0
 32 41  1  0  0  0  0
 32 42  1  0  0  0  0
 43 44  1  0  0  0  0
 43 45  1  0  0  0  0
 43 46  1  0  0  0  0
 44 45  1  0  0  0  0
 44 47  1  0  0  0  0
 44 48  1  0  0  0  0
 45 49  1  0  0  0  0
 45 50  1  0  0  0  0
M  END
$$$$
