26
 OpenBabel02232411153D
Structure written by MMmdl.
 49 52  0  0  0  0  0  0  0  0999 V2000
    1.8730   28.8860    6.8270 C   0  0  0  0  0  0  0  0  0  0  0  0
   -1.6280   31.4620    7.9870 C   0  0  0  0  0  0  0  0  0  0  0  0
   -0.1150   25.9940    8.9140 C   0  0  0  0  0  0  0  0  0  0  0  0
   -0.8950   25.2980   10.0380 C   0  0  0  0  0  0  0  0  0  0  0  0
   -0.7030   23.7750    9.8550 C   0  0  0  0  0  0  0  0  0  0  0  0
   -1.3350   22.9850   11.0100 C   0  0  0  0  0  0  0  0  0  0  0  0
   -0.8120   23.4630   12.3730 C   0  0  0  0  0  0  0  0  0  0  0  0
   -1.0450   24.9710   12.5590 C   0  0  0  0  0  0  0  0  0  0  0  0
   -0.4060   25.7760   11.4190 C   0  0  0  0  0  0  0  0  0  0  0  0
    5.3730   25.6970    5.5790 C   0  0  0  0  0  0  0  0  0  0  0  0
    5.2020   24.8870    6.7220 C   0  0  0  0  0  0  0  0  0  0  0  0
    4.3760   25.2820    7.7780 C   0  0  0  0  0  0  0  0  0  0  0  0
    3.6800   26.4920    7.6870 C   0  0  0  0  0  0  0  0  0  0  0  0
    1.1550   27.9240    7.5380 N   0  0  0  0  0  0  0  0  0  0  0  0
   -0.0440   28.2470    8.0810 C   0  0  0  0  0  0  0  0  0  0  0  0
   -0.7280   27.3410    8.7990 O   0  0  0  0  0  0  0  0  0  0  0  0
   -0.5760   29.5530    7.9150 C   0  0  0  0  0  0  0  0  0  0  0  0
   -1.7240   30.1940    8.3930 N   0  0  0  0  0  0  0  0  0  0  0  0
   -0.4190   31.7060    7.2410 N   0  0  0  0  0  0  0  0  0  0  0  0
    0.2510   30.4880    7.1670 C   0  0  0  0  0  0  0  0  0  0  0  0
    1.4480   30.1850    6.5720 N   0  0  0  0  0  0  0  0  0  0  0  0
    3.1290   28.5400    6.3640 N   0  0  0  0  0  0  0  0  0  0  0  0
    3.7970   27.2810    6.5350 C   0  0  0  0  0  0  0  0  0  0  0  0
    4.6690   26.8870    5.4900 C   0  0  0  0  0  0  0  0  0  0  0  0
   -2.3340   32.2610    8.1880 H   0  0  0  0  0  0  0  0  0  0  0  0
    0.9620   26.0990    9.1710 H   0  0  0  0  0  0  0  0  0  0  0  0
   -0.2640   25.5100    7.9270 H   0  0  0  0  0  0  0  0  0  0  0  0
   -1.9830   25.5370    9.9510 H   0  0  0  0  0  0  0  0  0  0  0  0
   -1.1720   23.4560    8.8980 H   0  0  0  0  0  0  0  0  0  0  0  0
    0.3900   23.5410    9.8170 H   0  0  0  0  0  0  0  0  0  0  0  0
   -2.4380   23.1140   10.9830 H   0  0  0  0  0  0  0  0  0  0  0  0
   -1.0970   21.9020   10.8890 H   0  0  0  0  0  0  0  0  0  0  0  0
   -1.3300   22.9040   13.1850 H   0  0  0  0  0  0  0  0  0  0  0  0
    0.2820   23.2540   12.4330 H   0  0  0  0  0  0  0  0  0  0  0  0
   -2.1390   25.1740   12.6080 H   0  0  0  0  0  0  0  0  0  0  0  0
   -0.5870   25.2920   13.5240 H   0  0  0  0  0  0  0  0  0  0  0  0
    0.7040   25.6590   11.4870 H   0  0  0  0  0  0  0  0  0  0  0  0
   -0.6560   26.8530   11.5460 H   0  0  0  0  0  0  0  0  0  0  0  0
    6.0440   25.3890    4.7740 H   0  0  0  0  0  0  0  0  0  0  0  0
    4.2530   24.6710    8.6740 H   0  0  0  0  0  0  0  0  0  0  0  0
    3.0470   26.7980    8.5250 H   0  0  0  0  0  0  0  0  0  0  0  0
   -0.1620   32.5890    6.7770 H   0  0  0  0  0  0  0  0  0  0  0  0
    3.6260   29.2010    5.7230 H   0  0  0  0  0  0  0  0  0  0  0  0
    4.7950   27.5210    4.6090 H   0  0  0  0  0  0  0  0  0  0  0  0
    5.9650   23.7350    6.6770 O   0  0  0  0  0  0  0  0  0  0  0  0
    5.6070   22.6760    7.5980 C   0  0  0  0  0  0  0  0  0  0  0  0
    6.3390   21.8810    7.3260 H   0  0  0  0  0  0  0  0  0  0  0  0
    5.7390   23.0180    8.6470 H   0  0  0  0  0  0  0  0  0  0  0  0
    4.5630   22.3440    7.4050 H   0  0  0  0  0  0  0  0  0  0  0  0
  1 14  2  0  0  0  0
  1 21  1  0  0  0  0
  1 22  1  0  0  0  0
  2 18  2  0  0  0  0
  2 19  1  0  0  0  0
  2 25  1  0  0  0  0
  3  4  1  0  0  0  0
  3 16  1  0  0  0  0
  3 26  1  0  0  0  0
  3 27  1  0  0  0  0
  4  5  1  0  0  0  0
  4  9  1  0  0  0  0
  4 28  1  0  0  0  0
  5  6  1  0  0  0  0
  5 29  1  0  0  0  0
  5 30  1  0  0  0  0
  6  7  1  0  0  0  0
  6 31  1  0  0  0  0
  6 32  1  0  0  0  0
  7  8  1  0  0  0  0
  7 33  1  0  0  0  0
  7 34  1  0  0  0  0
  8  9  1  0  0  0  0
  8 35  1  0  0  0  0
  8 36  1  0  0  0  0
  9 37  1  0  0  0  0
  9 38  1  0  0  0  0
 10 11  2  0  0  0  0
 10 24  1  0  0  0  0
 10 39  1  0  0  0  0
 11 12  1  0  0  0  0
 11 45  1  0  0  0  0
 12 13  2  0  0  0  0
 12 40  1  0  0  0  0
 13 23  1  0  0  0  0
 13 41  1  0  0  0  0
 14 15  1  0  0  0  0
 15 16  1  0  0  0  0
 15 17  2  0  0  0  0
 17 18  1  0  0  0  0
 17 20  1  0  0  0  0
 19 20  1  0  0  0  0
 19 42  1  0  0  0  0
 20 21  2  0  0  0  0
 22 23  1  0  0  0  0
 22 43  1  0  0  0  0
 23 24  2  0  0  0  0
 24 44  1  0  0  0  0
 45 46  1  0  0  0  0
 46 47  1  0  0  0  0
 46 48  1  0  0  0  0
 46 49  1  0  0  0  0
M  END
$$$$
