23475
 OpenBabel02232411173D
Structure written by MMmdl.
 42 44  0  0  0  0  0  0  0  0999 V2000
   42.9290   17.8200   12.3780 O   0  0  0  0  0  0  0  0  0  0  0  0
   41.7930   17.5260   12.7750 C   0  0  0  0  0  0  0  0  0  0  0  0
   40.8260   18.3100   12.8770 O   0  5  0  0  0  0  0  0  0  0  0  0
   41.5160   16.0310   13.1280 C   0  0  0  0  0  0  0  0  0  0  0  0
   42.8420   15.5560   13.5320 O   0  0  0  0  0  0  0  0  0  0  0  0
   42.8730   14.8240   14.6730 C   0  0  0  0  0  0  0  0  0  0  0  0
   42.2240   13.5450   14.8500 C   0  0  0  0  0  0  0  0  0  0  0  0
   40.9820   12.8680   13.5680 Br  0  0  0  0  0  0  0  0  0  0  0  0
   42.5700   12.8850   16.0010 C   0  0  0  0  0  0  0  0  0  0  0  0
   42.1270   11.5820   16.4540 C   0  0  0  0  0  0  0  0  0  0  0  0
   43.0050   10.6530   17.0570 C   0  0  0  0  0  0  0  0  0  0  0  0
   42.5510    9.3710   17.3530 C   0  0  0  0  0  0  0  0  0  0  0  0
   41.2540    8.9520   17.0180 C   0  0  0  0  0  0  0  0  0  0  0  0
   40.3770    9.8700   16.4230 C   0  0  0  0  0  0  0  0  0  0  0  0
   39.0220    9.5800   16.0470 N   0  0  0  0  0  0  0  0  0  0  0  0
   38.6210    8.1690   15.8100 C   0  0  0  0  0  0  0  0  0  0  0  0
   39.3120    7.4900   14.5930 C   0  0  0  0  0  0  0  0  0  0  0  0
   38.2740    6.5270   13.9880 C   0  0  0  0  0  0  0  0  0  0  0  0
   36.8970    6.8900   14.5860 C   0  0  0  0  0  0  0  0  0  0  0  0
   37.1000    8.1120   15.5010 C   0  0  0  0  0  0  0  0  0  0  0  0
   40.8000   11.2020   16.2210 C   0  0  0  0  0  0  0  0  0  0  0  0
   43.7210   13.8650   16.8760 S   0  0  0  0  0  0  0  0  0  0  0  0
   43.6720   15.1760   15.7320 C   0  0  0  0  0  0  0  0  0  0  0  0
   44.4330   16.4770   15.9800 C   0  0  0  0  0  0  0  0  0  0  0  0
   45.5540   16.3420   16.5150 O   0  0  0  0  0  0  0  0  0  0  0  0
   43.9240   17.5390   15.6270 O   0  5  0  0  0  0  0  0  0  0  0  0
   41.2410   15.4380   12.2310 H   0  0  0  0  0  0  0  0  0  0  0  0
   40.7570   15.9020   13.9280 H   0  0  0  0  0  0  0  0  0  0  0  0
   44.0390   10.9130   17.2840 H   0  0  0  0  0  0  0  0  0  0  0  0
   43.2170    8.6530   17.8390 H   0  0  0  0  0  0  0  0  0  0  0  0
   40.9610    7.9250   17.2230 H   0  0  0  0  0  0  0  0  0  0  0  0
   38.7100   10.1760   15.2460 H   0  0  0  0  0  0  0  0  0  0  0  0
   38.8290    7.5710   16.7350 H   0  0  0  0  0  0  0  0  0  0  0  0
   39.6100    8.2480   13.8370 H   0  0  0  0  0  0  0  0  0  0  0  0
   40.2210    6.9360   14.9130 H   0  0  0  0  0  0  0  0  0  0  0  0
   38.2560    6.6160   12.8810 H   0  0  0  0  0  0  0  0  0  0  0  0
   38.5310    5.4730   14.2440 H   0  0  0  0  0  0  0  0  0  0  0  0
   36.1630    7.1180   13.7830 H   0  0  0  0  0  0  0  0  0  0  0  0
   36.5020    6.0300   15.1750 H   0  0  0  0  0  0  0  0  0  0  0  0
   36.5120    8.0070   16.4380 H   0  0  0  0  0  0  0  0  0  0  0  0
   36.7650    9.0330   14.9710 H   0  0  0  0  0  0  0  0  0  0  0  0
   40.0640   11.9290   15.8680 H   0  0  0  0  0  0  0  0  0  0  0  0
  1  2  2  0  0  0  0
  2  3  1  0  0  0  0
  2  4  1  0  0  0  0
  4  5  1  0  0  0  0
  4 27  1  0  0  0  0
  4 28  1  0  0  0  0
  5  6  1  0  0  0  0
  6 23  2  0  0  0  0
  6  7  1  0  0  0  0
  7  8  1  0  0  0  0
  7  9  2  0  0  0  0
  9 10  1  0  0  0  0
  9 22  1  0  0  0  0
 10 21  2  0  0  0  0
 10 11  1  0  0  0  0
 11 12  2  0  0  0  0
 11 29  1  0  0  0  0
 12 13  1  0  0  0  0
 12 30  1  0  0  0  0
 13 14  2  0  0  0  0
 13 31  1  0  0  0  0
 14 15  1  0  0  0  0
 14 21  1  0  0  0  0
 15 16  1  0  0  0  0
 15 32  1  0  0  0  0
 16 20  1  0  0  0  0
 16 17  1  0  0  0  0
 16 33  1  0  0  0  0
 17 18  1  0  0  0  0
 17 34  1  0  0  0  0
 17 35  1  0  0  0  0
 18 19  1  0  0  0  0
 18 36  1  0  0  0  0
 18 37  1  0  0  0  0
 19 20  1  0  0  0  0
 19 38  1  0  0  0  0
 19 39  1  0  0  0  0
 20 40  1  0  0  0  0
 20 41  1  0  0  0  0
 21 42  1  0  0  0  0
 22 23  1  0  0  0  0
 23 24  1  0  0  0  0
 24 25  2  0  0  0  0
 24 26  1  0  0  0  0
M  CHG  2   3  -1  26  -1
M  END
$$$$
