18658-1
 OpenBabel02232411163D
Structure written by MMmdl.
 47 48  0  0  0  0  0  0  0  0999 V2000
   22.1200   12.9960   28.4870 O   0  0  0  0  0  0  0  0  0  0  0  0
   23.0900   12.7370   29.5140 C   0  0  0  0  0  0  0  0  0  0  0  0
   23.0220   11.2970   30.0390 C   0  0  0  0  0  0  0  0  0  0  0  0
   21.9780   11.3430   31.0790 O   0  0  0  0  0  0  0  0  0  0  0  0
   21.4380   10.1750   31.5050 C   0  0  0  0  0  0  0  0  0  0  0  0
   21.9320    8.9980   31.0550 N   0  0  0  0  0  0  0  0  0  0  0  0
   21.2700    7.8380   31.4430 C   0  0  0  0  0  0  0  0  0  0  0  0
   20.1560    7.8560   32.2780 C   0  0  0  0  0  0  0  0  0  0  0  0
   19.6540    9.0970   32.7520 C   0  0  0  0  0  0  0  0  0  0  0  0
   18.5280    9.1180   33.5340 N   0  0  0  0  0  0  0  0  0  0  0  0
   20.3160   10.3090   32.3750 C   0  0  0  0  0  0  0  0  0  0  0  0
   19.8930   11.6020   32.7510 C   0  0  0  0  0  0  0  0  0  0  0  0
   19.5900   12.6920   33.0090 N   0  0  0  0  0  0  0  0  0  0  0  0
   21.8440    6.6790   30.8780 N   0  0  0  0  0  0  0  0  0  0  0  0
   21.2890    5.3750   30.8640 C   0  0  0  0  0  0  0  0  0  0  0  0
   20.2380    5.1000   31.4020 O   0  0  0  0  0  0  0  0  0  0  0  0
   22.1040    4.3820   30.0460 C   0  0  0  0  0  0  0  0  0  0  0  0
   23.4450    4.0920   30.6540 C   0  0  0  0  0  0  0  0  0  0  0  0
   24.5620    4.9300   30.3670 C   0  0  0  0  0  0  0  0  0  0  0  0
   24.2490    5.9680   29.4950 O   0  0  0  0  0  0  0  0  0  0  0  0
   25.2410    7.0140   29.3210 C   0  0  0  0  0  0  0  0  0  0  0  0
   25.8210    4.6810   30.9020 C   0  0  0  0  0  0  0  0  0  0  0  0
   26.0040    3.5880   31.7630 C   0  0  0  0  0  0  0  0  0  0  0  0
   24.9160    2.7650   32.0510 C   0  0  0  0  0  0  0  0  0  0  0  0
   23.6370    2.9990   31.4870 C   0  0  0  0  0  0  0  0  0  0  0  0
   24.9270    1.6620   32.8800 O   0  0  0  0  0  0  0  0  0  0  0  0
   26.1850    1.3110   33.5120 C   0  0  0  0  0  0  0  0  0  0  0  0
   22.3830   12.4510   27.6690 H   0  0  0  0  0  0  0  0  0  0  0  0
   24.1170   12.9310   29.1120 H   0  0  0  0  0  0  0  0  0  0  0  0
   22.8250   13.4730   30.3120 H   0  0  0  0  0  0  0  0  0  0  0  0
   22.7380   10.5720   29.2430 H   0  0  0  0  0  0  0  0  0  0  0  0
   23.9700   10.9940   30.5430 H   0  0  0  0  0  0  0  0  0  0  0  0
   19.6480    6.9310   32.5580 H   0  0  0  0  0  0  0  0  0  0  0  0
   18.0500    8.2400   33.8140 H   0  0  0  0  0  0  0  0  0  0  0  0
   18.1190    9.9970   33.8510 H   0  0  0  0  0  0  0  0  0  0  0  0
   22.7490    6.8320   30.3650 H   0  0  0  0  0  0  0  0  0  0  0  0
   21.5180    3.4310   29.9520 H   0  0  0  0  0  0  0  0  0  0  0  0
   22.2550    4.8090   29.0160 H   0  0  0  0  0  0  0  0  0  0  0  0
   26.1130    6.6100   28.7640 H   0  0  0  0  0  0  0  0  0  0  0  0
   24.6790    7.7600   28.7150 H   0  0  0  0  0  0  0  0  0  0  0  0
   25.5380    7.4380   30.3050 H   0  0  0  0  0  0  0  0  0  0  0  0
   26.6820    5.3120   30.6690 H   0  0  0  0  0  0  0  0  0  0  0  0
   26.9980    3.4130   32.1780 H   0  0  0  0  0  0  0  0  0  0  0  0
   22.8240    2.3050   31.7170 H   0  0  0  0  0  0  0  0  0  0  0  0
   25.9000    0.4060   34.0990 H   0  0  0  0  0  0  0  0  0  0  0  0
   26.5240    2.1330   34.1780 H   0  0  0  0  0  0  0  0  0  0  0  0
   26.9480    1.0640   32.7410 H   0  0  0  0  0  0  0  0  0  0  0  0
  1  2  1  0  0  0  0
  1 28  1  0  0  0  0
  2  3  1  0  0  0  0
  2 29  1  0  0  0  0
  2 30  1  0  0  0  0
  3  4  1  0  0  0  0
  3 31  1  0  0  0  0
  3 32  1  0  0  0  0
  4  5  1  0  0  0  0
  5 11  2  0  0  0  0
  5  6  1  0  0  0  0
  6  7  2  0  0  0  0
  7  8  1  0  0  0  0
  7 14  1  0  0  0  0
  8  9  2  0  0  0  0
  8 33  1  0  0  0  0
  9 10  1  0  0  0  0
  9 11  1  0  0  0  0
 10 34  1  0  0  0  0
 10 35  1  0  0  0  0
 11 12  1  0  0  0  0
 12 13  3  0  0  0  0
 14 15  1  0  0  0  0
 14 36  1  0  0  0  0
 15 16  2  0  0  0  0
 15 17  1  0  0  0  0
 17 18  1  0  0  0  0
 17 37  1  0  0  0  0
 17 38  1  0  0  0  0
 18 25  2  0  0  0  0
 18 19  1  0  0  0  0
 19 20  1  0  0  0  0
 19 22  2  0  0  0  0
 20 21  1  0  0  0  0
 21 39  1  0  0  0  0
 21 40  1  0  0  0  0
 21 41  1  0  0  0  0
 22 23  1  0  0  0  0
 22 42  1  0  0  0  0
 23 24  2  0  0  0  0
 23 43  1  0  0  0  0
 24 25  1  0  0  0  0
 24 26  1  0  0  0  0
 25 44  1  0  0  0  0
 26 27  1  0  0  0  0
 27 45  1  0  0  0  0
 27 46  1  0  0  0  0
 27 47  1  0  0  0  0
M  END
$$$$
