ejm_50
 OpenBabel02232411173D
Structure written by MMmdl.
 33 34  0  0  0  0  0  0  0  0999 V2000
   -1.5600   21.5190  -27.5950 C   0  0  0  0  0  0  0  0  0  0  0  0
   -2.8350   21.0050  -27.8470 C   0  0  0  0  0  0  0  0  0  0  0  0
   -3.6140   21.5650  -28.8600 C   0  0  0  0  0  0  0  0  0  0  0  0
   -3.1530   22.6400  -29.6350 C   0  0  0  0  0  0  0  0  0  0  0  0
   -1.8790   23.1450  -29.3460 C   0  0  0  0  0  0  0  0  0  0  0  0
   -1.0780   22.5960  -28.3420 C   0  0  0  0  0  0  0  0  0  0  0  0
   -1.2560   24.4830  -30.2180 Cl  0  0  0  0  0  0  0  0  0  0  0  0
   -4.0150   23.1440  -30.7560 C   0  0  0  0  0  0  0  0  0  0  0  0
   -4.4240   22.4210  -31.6380 O   0  0  0  0  0  0  0  0  0  0  0  0
   -4.3260   24.5170  -30.6560 N   0  0  0  0  0  0  0  0  0  0  0  0
   -5.1700   25.2610  -31.5260 C   0  0  0  0  0  0  0  0  0  0  0  0
   -5.8490   24.6980  -32.6190 C   0  0  0  0  0  0  0  0  0  0  0  0
   -6.6980   25.5220  -33.3720 C   0  0  0  0  0  0  0  0  0  0  0  0
   -6.8870   26.8390  -33.1090 N   0  0  0  0  0  0  0  0  0  0  0  0
   -6.1990   27.3820  -32.0420 C   0  0  0  0  0  0  0  0  0  0  0  0
   -5.3330   26.6330  -31.2350 C   0  0  0  0  0  0  0  0  0  0  0  0
   -6.4640   28.7650  -31.8250 N   0  0  0  0  0  0  0  0  0  0  0  0
   -5.7490   29.6270  -30.9540 C   0  0  0  0  0  0  0  0  0  0  0  0
   -4.8400   29.2440  -30.2540 O   0  0  0  0  0  0  0  0  0  0  0  0
   -6.2430   31.0750  -30.9870 C   0  0  0  0  0  0  0  0  0  0  0  0
   -5.1710   20.9180  -29.1690 Cl  0  0  0  0  0  0  0  0  0  0  0  0
   -5.8150   31.6260  -31.8590 H   0  0  0  0  0  0  0  0  0  0  0  0
   -0.9370   21.0800  -26.8070 H   0  0  0  0  0  0  0  0  0  0  0  0
   -3.2050   20.1770  -27.2400 H   0  0  0  0  0  0  0  0  0  0  0  0
   -0.0850   23.0020  -28.1260 H   0  0  0  0  0  0  0  0  0  0  0  0
   -3.9160   25.0440  -29.8640 H   0  0  0  0  0  0  0  0  0  0  0  0
   -5.7490   23.6420  -32.8810 H   0  0  0  0  0  0  0  0  0  0  0  0
   -7.2620   25.1110  -34.2260 H   0  0  0  0  0  0  0  0  0  0  0  0
   -4.7960   27.0950  -30.4030 H   0  0  0  0  0  0  0  0  0  0  0  0
   -7.3230   29.1340  -32.2940 H   0  0  0  0  0  0  0  0  0  0  0  0
   -7.3570   31.1520  -30.9900 H   0  0  0  0  0  0  0  0  0  0  0  0
   -5.8730   32.6190  -29.7940 H   0  0  0  0  0  0  0  0  0  0  0  0
   -5.7310   31.6280  -29.7610 O   0  0  0  0  0  0  0  0  0  0  0  0
  1  2  2  0  0  0  0
  1  6  1  0  0  0  0
  1 23  1  0  0  0  0
  2  3  1  0  0  0  0
  2 24  1  0  0  0  0
  3  4  2  0  0  0  0
  3 21  1  0  0  0  0
  4  5  1  0  0  0  0
  4  8  1  0  0  0  0
  5  6  2  0  0  0  0
  5  7  1  0  0  0  0
  6 25  1  0  0  0  0
  8  9  2  0  0  0  0
  8 10  1  0  0  0  0
 10 11  1  0  0  0  0
 10 26  1  0  0  0  0
 11 12  2  0  0  0  0
 11 16  1  0  0  0  0
 12 13  1  0  0  0  0
 12 27  1  0  0  0  0
 13 14  2  0  0  0  0
 13 28  1  0  0  0  0
 14 15  1  0  0  0  0
 15 16  2  0  0  0  0
 15 17  1  0  0  0  0
 16 29  1  0  0  0  0
 17 18  1  0  0  0  0
 17 30  1  0  0  0  0
 18 19  2  0  0  0  0
 18 20  1  0  0  0  0
 20 22  1  0  0  0  0
 20 31  1  0  0  0  0
 20 33  1  0  0  0  0
 32 33  1  0  0  0  0
M  END
$$$$
