17124-1
 OpenBabel02232411163D
Structure written by MMmdl.
 46 47  0  0  0  0  0  0  0  0999 V2000
   24.4440   10.8690   30.7640 C   0  0  0  0  0  0  0  0  0  0  0  0
   23.1220   11.2540   30.1350 C   0  0  0  0  0  0  0  0  0  0  0  0
   22.0480   11.3090   31.1490 O   0  0  0  0  0  0  0  0  0  0  0  0
   21.4520   10.1590   31.5440 C   0  0  0  0  0  0  0  0  0  0  0  0
   21.9190    8.9720   31.0950 N   0  0  0  0  0  0  0  0  0  0  0  0
   21.2140    7.8300   31.4470 C   0  0  0  0  0  0  0  0  0  0  0  0
   20.0820    7.8640   32.2560 C   0  0  0  0  0  0  0  0  0  0  0  0
   19.6060    9.1150   32.7320 C   0  0  0  0  0  0  0  0  0  0  0  0
   18.4750    9.1560   33.5070 N   0  0  0  0  0  0  0  0  0  0  0  0
   20.3030   10.3140   32.3760 C   0  0  0  0  0  0  0  0  0  0  0  0
   19.8950   11.6110   32.7500 C   0  0  0  0  0  0  0  0  0  0  0  0
   19.6080   12.7030   33.0140 N   0  0  0  0  0  0  0  0  0  0  0  0
   21.7820    6.6740   30.8710 N   0  0  0  0  0  0  0  0  0  0  0  0
   21.2060    5.3840   30.8090 C   0  0  0  0  0  0  0  0  0  0  0  0
   20.1480    5.1100   31.3340 O   0  0  0  0  0  0  0  0  0  0  0  0
   22.0110    4.4090   29.9590 C   0  0  0  0  0  0  0  0  0  0  0  0
   23.3680    4.1070   30.5250 C   0  0  0  0  0  0  0  0  0  0  0  0
   24.4700    4.9590   30.2600 C   0  0  0  0  0  0  0  0  0  0  0  0
   24.1530    6.0400   29.4480 O   0  0  0  0  0  0  0  0  0  0  0  0
   25.1360    7.1020   29.3160 C   0  0  0  0  0  0  0  0  0  0  0  0
   25.7460    4.6900   30.7650 C   0  0  0  0  0  0  0  0  0  0  0  0
   25.9350    3.5570   31.5540 C   0  0  0  0  0  0  0  0  0  0  0  0
   27.6700    3.1970   32.2430 Br  0  0  0  0  0  0  0  0  0  0  0  0
   24.8540    2.6930   31.8240 C   0  0  0  0  0  0  0  0  0  0  0  0
   23.5790    2.9670   31.3030 C   0  0  0  0  0  0  0  0  0  0  0  0
   25.1860    1.6270   32.6250 O   0  0  0  0  0  0  0  0  0  0  0  0
   24.1990    0.5750   32.7960 C   0  0  0  0  0  0  0  0  0  0  0  0
   24.3910    9.8570   31.2300 H   0  0  0  0  0  0  0  0  0  0  0  0
   24.7500   11.6070   31.5350 H   0  0  0  0  0  0  0  0  0  0  0  0
   25.2340   10.8360   29.9710 H   0  0  0  0  0  0  0  0  0  0  0  0
   23.1080   12.3180   29.7980 H   0  0  0  0  0  0  0  0  0  0  0  0
   22.8240   10.5570   29.3200 H   0  0  0  0  0  0  0  0  0  0  0  0
   19.5420    6.9500   32.5110 H   0  0  0  0  0  0  0  0  0  0  0  0
   17.9720    8.2850   33.7630 H   0  0  0  0  0  0  0  0  0  0  0  0
   18.0720   10.0410   33.8140 H   0  0  0  0  0  0  0  0  0  0  0  0
   22.6850    6.8340   30.3570 H   0  0  0  0  0  0  0  0  0  0  0  0
   21.4240    3.4590   29.8560 H   0  0  0  0  0  0  0  0  0  0  0  0
   22.1330    4.8610   28.9360 H   0  0  0  0  0  0  0  0  0  0  0  0
   24.5450    7.8860   28.7890 H   0  0  0  0  0  0  0  0  0  0  0  0
   25.4710    7.4570   30.3140 H   0  0  0  0  0  0  0  0  0  0  0  0
   25.9820    6.7410   28.6930 H   0  0  0  0  0  0  0  0  0  0  0  0
   26.5940    5.3480   30.5380 H   0  0  0  0  0  0  0  0  0  0  0  0
   22.7470    2.2870   31.5040 H   0  0  0  0  0  0  0  0  0  0  0  0
   24.7730   -0.1680   33.4020 H   0  0  0  0  0  0  0  0  0  0  0  0
   23.3210    0.9550   33.3600 H   0  0  0  0  0  0  0  0  0  0  0  0
   23.9180    0.1480   31.8080 H   0  0  0  0  0  0  0  0  0  0  0  0
  1  2  1  0  0  0  0
  1 28  1  0  0  0  0
  1 29  1  0  0  0  0
  1 30  1  0  0  0  0
  2  3  1  0  0  0  0
  2 31  1  0  0  0  0
  2 32  1  0  0  0  0
  3  4  1  0  0  0  0
  4 10  2  0  0  0  0
  4  5  1  0  0  0  0
  5  6  2  0  0  0  0
  6  7  1  0  0  0  0
  6 13  1  0  0  0  0
  7  8  2  0  0  0  0
  7 33  1  0  0  0  0
  8  9  1  0  0  0  0
  8 10  1  0  0  0  0
  9 34  1  0  0  0  0
  9 35  1  0  0  0  0
 10 11  1  0  0  0  0
 11 12  3  0  0  0  0
 13 14  1  0  0  0  0
 13 36  1  0  0  0  0
 14 15  2  0  0  0  0
 14 16  1  0  0  0  0
 16 17  1  0  0  0  0
 16 37  1  0  0  0  0
 16 38  1  0  0  0  0
 17 25  2  0  0  0  0
 17 18  1  0  0  0  0
 18 19  1  0  0  0  0
 18 21  2  0  0  0  0
 19 20  1  0  0  0  0
 20 39  1  0  0  0  0
 20 40  1  0  0  0  0
 20 41  1  0  0  0  0
 21 22  1  0  0  0  0
 21 42  1  0  0  0  0
 22 23  1  0  0  0  0
 22 24  2  0  0  0  0
 24 25  1  0  0  0  0
 24 26  1  0  0  0  0
 25 43  1  0  0  0  0
 26 27  1  0  0  0  0
 27 44  1  0  0  0  0
 27 45  1  0  0  0  0
 27 46  1  0  0  0  0
M  END
$$$$
