p38a_2f
 OpenBabel02232411163D
Structure written by MMmdl.
 46 49  0  0  0  0  0  0  0  0999 V2000
   33.9230   38.7530   27.1470 C   0  0  0  0  0  0  0  0  0  0  0  0
   33.3470   38.3040   28.4960 C   0  0  0  0  0  0  0  0  0  0  0  0
   31.0990   38.2140   27.6090 C   0  0  0  0  0  0  0  0  0  0  0  0
   31.5670   38.6740   26.2220 C   0  0  0  0  0  0  0  0  0  0  0  0
   37.8480   36.0760   17.4210 C   0  0  0  0  0  0  0  0  0  0  0  0
   32.1450   37.5210   28.3290 O   0  0  0  0  0  0  0  0  0  0  0  0
   34.2570   35.0920   21.6230 C   0  0  0  0  0  0  0  0  0  0  0  0
   37.0840   35.8160   18.5620 C   0  0  0  0  0  0  0  0  0  0  0  0
   33.7620   39.2950   23.9700 C   0  0  0  0  0  0  0  0  0  0  0  0
   32.8430   39.5250   26.3640 C   0  0  0  0  0  0  0  0  0  0  0  0
   34.4960   37.9610   21.6660 C   0  0  0  0  0  0  0  0  0  0  0  0
   34.8390   37.2450   20.4690 C   0  0  0  0  0  0  0  0  0  0  0  0
   37.3290   36.0440   16.1230 C   0  0  0  0  0  0  0  0  0  0  0  0
   35.9740   35.7390   15.9600 C   0  0  0  0  0  0  0  0  0  0  0  0
   35.1660   35.4560   17.0640 C   0  0  0  0  0  0  0  0  0  0  0  0
   34.0340   37.2600   22.8200 C   0  0  0  0  0  0  0  0  0  0  0  0
   34.5760   39.3770   21.7640 C   0  0  0  0  0  0  0  0  0  0  0  0
   34.7240   35.8960   20.4650 C   0  0  0  0  0  0  0  0  0  0  0  0
   35.7390   35.4970   18.3420 C   0  0  0  0  0  0  0  0  0  0  0  0
   33.4820   35.1450   24.0240 C   0  0  0  0  0  0  0  0  0  0  0  0
   37.5080   35.8830   19.5640 H   0  0  0  0  0  0  0  0  0  0  0  0
   34.9080   35.0480   19.3790 O   0  0  0  0  0  0  0  0  0  0  0  0
   34.2380   40.0500   22.8710 N   0  0  0  0  0  0  0  0  0  0  0  0
   34.1260   33.8870   21.6390 O   0  0  0  0  0  0  0  0  0  0  0  0
   33.9410   35.8600   22.8000 N   0  0  0  0  0  0  0  0  0  0  0  0
   33.6700   37.9200   23.9700 N   0  0  0  0  0  0  0  0  0  0  0  0
   33.3430   40.0320   25.0510 N   0  0  0  0  0  0  0  0  0  0  0  0
   34.8100   39.4100   27.3220 H   0  0  0  0  0  0  0  0  0  0  0  0
   34.2570   37.8590   26.5650 H   0  0  0  0  0  0  0  0  0  0  0  0
   34.0300   37.5860   29.0070 H   0  0  0  0  0  0  0  0  0  0  0  0
   33.1220   39.1820   29.1460 H   0  0  0  0  0  0  0  0  0  0  0  0
   30.7520   39.0720   28.2260 H   0  0  0  0  0  0  0  0  0  0  0  0
   30.3130   37.4290   27.5280 H   0  0  0  0  0  0  0  0  0  0  0  0
   31.7730   37.7770   25.5870 H   0  0  0  0  0  0  0  0  0  0  0  0
   30.7630   39.2720   25.7330 H   0  0  0  0  0  0  0  0  0  0  0  0
   39.1380   36.3650   17.5790 F   0  0  0  0  0  0  0  0  0  0  0  0
   32.5860   40.4690   26.9360 H   0  0  0  0  0  0  0  0  0  0  0  0
   35.1770   37.8170   19.6000 H   0  0  0  0  0  0  0  0  0  0  0  0
   35.5360   35.7410   14.9580 H   0  0  0  0  0  0  0  0  0  0  0  0
   34.1030   35.2420   16.9270 H   0  0  0  0  0  0  0  0  0  0  0  0
   34.9250   39.9670   20.9010 H   0  0  0  0  0  0  0  0  0  0  0  0
   34.1390   35.4180   24.8940 H   0  0  0  0  0  0  0  0  0  0  0  0
   32.4270   35.4420   24.2660 H   0  0  0  0  0  0  0  0  0  0  0  0
   33.5280   34.0360   23.8660 H   0  0  0  0  0  0  0  0  0  0  0  0
   33.5620   41.0500   25.0640 H   0  0  0  0  0  0  0  0  0  0  0  0
   37.9440   36.2780   15.2550 H   0  0  0  0  0  0  0  0  0  0  0  0
  1  2  1  0  0  0  0
  1 10  1  0  0  0  0
  1 28  1  0  0  0  0
  1 29  1  0  0  0  0
  2  6  1  0  0  0  0
  2 30  1  0  0  0  0
  2 31  1  0  0  0  0
  3  4  1  0  0  0  0
  3  6  1  0  0  0  0
  3 32  1  0  0  0  0
  3 33  1  0  0  0  0
  4 10  1  0  0  0  0
  4 34  1  0  0  0  0
  4 35  1  0  0  0  0
  5  8  2  0  0  0  0
  5 13  1  0  0  0  0
  5 36  1  0  0  0  0
  7 18  1  0  0  0  0
  7 24  2  0  0  0  0
  7 25  1  0  0  0  0
  8 19  1  0  0  0  0
  8 21  1  0  0  0  0
  9 23  2  0  0  0  0
  9 26  1  0  0  0  0
  9 27  1  0  0  0  0
 10 27  1  0  0  0  0
 10 37  1  0  0  0  0
 11 12  1  0  0  0  0
 11 16  1  0  0  0  0
 11 17  2  0  0  0  0
 12 18  2  0  0  0  0
 12 38  1  0  0  0  0
 13 14  2  0  0  0  0
 13 46  1  0  0  0  0
 14 15  1  0  0  0  0
 14 39  1  0  0  0  0
 15 19  2  0  0  0  0
 15 40  1  0  0  0  0
 16 25  1  0  0  0  0
 16 26  2  0  0  0  0
 17 23  1  0  0  0  0
 17 41  1  0  0  0  0
 18 22  1  0  0  0  0
 19 22  1  0  0  0  0
 20 25  1  0  0  0  0
 20 42  1  0  0  0  0
 20 43  1  0  0  0  0
 20 44  1  0  0  0  0
 27 45  1  0  0  0  0
M  END
$$$$
