18631-1
 OpenBabel02232411163D
Structure written by MMmdl.
 42 43  0  0  0  0  0  0  0  0999 V2000
   23.8420   12.5930   30.3580 C   0  0  0  0  0  0  0  0  0  0  0  0
   23.3910   11.1480   30.4610 C   0  0  0  0  0  0  0  0  0  0  0  0
   22.1460   11.2400   31.2650 O   0  0  0  0  0  0  0  0  0  0  0  0
   21.5160   10.0960   31.6090 C   0  0  0  0  0  0  0  0  0  0  0  0
   21.9830    8.9120   31.1480 N   0  0  0  0  0  0  0  0  0  0  0  0
   21.2570    7.7720   31.4650 C   0  0  0  0  0  0  0  0  0  0  0  0
   20.1160    7.8050   32.2620 C   0  0  0  0  0  0  0  0  0  0  0  0
   19.6410    9.0500   32.7500 C   0  0  0  0  0  0  0  0  0  0  0  0
   18.5030    9.0880   33.5160 N   0  0  0  0  0  0  0  0  0  0  0  0
   20.3470   10.2500   32.4130 C   0  0  0  0  0  0  0  0  0  0  0  0
   19.9390   11.5460   32.7890 C   0  0  0  0  0  0  0  0  0  0  0  0
   19.6490   12.6380   33.0540 N   0  0  0  0  0  0  0  0  0  0  0  0
   21.8080    6.6160   30.8700 N   0  0  0  0  0  0  0  0  0  0  0  0
   21.2220    5.3270   30.8190 C   0  0  0  0  0  0  0  0  0  0  0  0
   20.1650    5.0680   31.3550 O   0  0  0  0  0  0  0  0  0  0  0  0
   22.0120    4.3380   29.9720 C   0  0  0  0  0  0  0  0  0  0  0  0
   23.3310    3.9800   30.5870 C   0  0  0  0  0  0  0  0  0  0  0  0
   24.4780    4.7900   30.3680 C   0  0  0  0  0  0  0  0  0  0  0  0
   24.2270    5.8660   29.5330 O   0  0  0  0  0  0  0  0  0  0  0  0
   25.2740    6.8570   29.3590 C   0  0  0  0  0  0  0  0  0  0  0  0
   25.7140    4.4890   30.9390 C   0  0  0  0  0  0  0  0  0  0  0  0
   25.8240    3.3510   31.7480 C   0  0  0  0  0  0  0  0  0  0  0  0
   24.7190    2.5300   31.9630 C   0  0  0  0  0  0  0  0  0  0  0  0
   23.4830    2.8380   31.3780 C   0  0  0  0  0  0  0  0  0  0  0  0
   24.1040   13.0100   31.3550 H   0  0  0  0  0  0  0  0  0  0  0  0
   23.0490   13.2290   29.8990 H   0  0  0  0  0  0  0  0  0  0  0  0
   24.7480   12.6380   29.7020 H   0  0  0  0  0  0  0  0  0  0  0  0
   23.1220   10.7150   29.4710 H   0  0  0  0  0  0  0  0  0  0  0  0
   24.1180   10.5120   31.0130 H   0  0  0  0  0  0  0  0  0  0  0  0
   19.5680    6.8910   32.5030 H   0  0  0  0  0  0  0  0  0  0  0  0
   18.0130    8.2160   33.7910 H   0  0  0  0  0  0  0  0  0  0  0  0
   18.1080    9.9720   33.8370 H   0  0  0  0  0  0  0  0  0  0  0  0
   22.7210    6.7600   30.3740 H   0  0  0  0  0  0  0  0  0  0  0  0
   21.3950    3.4130   29.8360 H   0  0  0  0  0  0  0  0  0  0  0  0
   22.1880    4.7980   28.9630 H   0  0  0  0  0  0  0  0  0  0  0  0
   25.5730    7.2800   30.3420 H   0  0  0  0  0  0  0  0  0  0  0  0
   26.1330    6.4030   28.8220 H   0  0  0  0  0  0  0  0  0  0  0  0
   24.7580    7.6200   28.7320 H   0  0  0  0  0  0  0  0  0  0  0  0
   26.5950    5.1090   30.7690 H   0  0  0  0  0  0  0  0  0  0  0  0
   26.7890    3.1080   32.2050 H   0  0  0  0  0  0  0  0  0  0  0  0
   24.8160    1.6370   32.5870 H   0  0  0  0  0  0  0  0  0  0  0  0
   22.6370    2.1670   31.5520 H   0  0  0  0  0  0  0  0  0  0  0  0
  1  2  1  0  0  0  0
  1 25  1  0  0  0  0
  1 26  1  0  0  0  0
  1 27  1  0  0  0  0
  2  3  1  0  0  0  0
  2 28  1  0  0  0  0
  2 29  1  0  0  0  0
  3  4  1  0  0  0  0
  4 10  2  0  0  0  0
  4  5  1  0  0  0  0
  5  6  2  0  0  0  0
  6  7  1  0  0  0  0
  6 13  1  0  0  0  0
  7  8  2  0  0  0  0
  7 30  1  0  0  0  0
  8  9  1  0  0  0  0
  8 10  1  0  0  0  0
  9 31  1  0  0  0  0
  9 32  1  0  0  0  0
 10 11  1  0  0  0  0
 11 12  3  0  0  0  0
 13 14  1  0  0  0  0
 13 33  1  0  0  0  0
 14 15  2  0  0  0  0
 14 16  1  0  0  0  0
 16 17  1  0  0  0  0
 16 34  1  0  0  0  0
 16 35  1  0  0  0  0
 17 24  2  0  0  0  0
 17 18  1  0  0  0  0
 18 19  1  0  0  0  0
 18 21  2  0  0  0  0
 19 20  1  0  0  0  0
 20 36  1  0  0  0  0
 20 37  1  0  0  0  0
 20 38  1  0  0  0  0
 21 22  1  0  0  0  0
 21 39  1  0  0  0  0
 22 23  2  0  0  0  0
 22 40  1  0  0  0  0
 23 24  1  0  0  0  0
 23 41  1  0  0  0  0
 24 42  1  0  0  0  0
M  END
$$$$
