23477.pdb
 OpenBabel02232411173D

 43 45  0  0  0  0  0  0  0  0999 V2000
   38.9910    9.5560   16.0290 N   0  0  0  0  0  0  0  0  0  0  0  0
   41.7980   17.5210   12.8140 C   0  0  0  0  0  0  0  0  0  0  0  0
   41.5200   16.0220   13.1540 C   0  0  0  0  0  0  0  0  0  0  0  0
   42.8610   14.8050   14.7040 C   0  0  0  0  0  0  0  0  0  0  0  0
   42.2090   13.5270   14.8730 C   0  0  0  0  0  0  0  0  0  0  0  0
   42.5400   12.8650   16.0270 C   0  0  0  0  0  0  0  0  0  0  0  0
   42.0940   11.5610   16.4730 C   0  0  0  0  0  0  0  0  0  0  0  0
   42.9650   10.6280   17.0800 C   0  0  0  0  0  0  0  0  0  0  0  0
   42.5100    9.3440   17.3620 C   0  0  0  0  0  0  0  0  0  0  0  0
   41.2170    8.9260   17.0110 C   0  0  0  0  0  0  0  0  0  0  0  0
   40.3450    9.8480   16.4150 C   0  0  0  0  0  0  0  0  0  0  0  0
   38.6120    8.1470   15.7220 C   0  0  0  0  0  0  0  0  0  0  0  0
   37.0790    8.1140   15.4970 C   0  0  0  0  0  0  0  0  0  0  0  0
   36.6270    6.7190   15.0540 C   0  0  0  0  0  0  0  0  0  0  0  0
   38.7760    6.2200   14.0810 C   0  0  0  0  0  0  0  0  0  0  0  0
   39.3380    7.5890   14.4700 C   0  0  0  0  0  0  0  0  0  0  0  0
   40.7690   11.1810   16.2240 C   0  0  0  0  0  0  0  0  0  0  0  0
   43.6490   15.1540   15.7720 C   0  0  0  0  0  0  0  0  0  0  0  0
   44.4140   16.4530   16.0230 C   0  0  0  0  0  0  0  0  0  0  0  0
   42.9360   17.8220   12.4300 O   0  0  0  0  0  0  0  0  0  0  0  0
   40.8260   18.2990   12.9130 O   0  5  0  0  0  0  0  0  0  0  0  0
   42.8420   15.5410   13.5640 O   0  0  0  0  0  0  0  0  0  0  0  0
   37.3420    6.2720   13.8780 O   0  0  0  0  0  0  0  0  0  0  0  0
   45.5520   16.3110   16.5180 O   0  0  0  0  0  0  0  0  0  0  0  0
   43.8870   17.5180   15.7080 O   0  5  0  0  0  0  0  0  0  0  0  0
   40.9810   12.8510   13.5760 Br  0  0  0  0  0  0  0  0  0  0  0  0
   43.6800   13.8450   16.9190 S   0  0  0  0  0  0  0  0  0  0  0  0
   41.2500   15.4370   12.2520 H   0  0  0  0  0  0  0  0  0  0  0  0
   40.7560   15.8900   13.9490 H   0  0  0  0  0  0  0  0  0  0  0  0
   43.9970   10.8880   17.3220 H   0  0  0  0  0  0  0  0  0  0  0  0
   43.1700    8.6240   17.8510 H   0  0  0  0  0  0  0  0  0  0  0  0
   40.9210    7.8990   17.2090 H   0  0  0  0  0  0  0  0  0  0  0  0
   38.6710   10.1800   15.2540 H   0  0  0  0  0  0  0  0  0  0  0  0
   36.5580    8.3720   16.4510 H   0  0  0  0  0  0  0  0  0  0  0  0
   36.7890    8.8630   14.7220 H   0  0  0  0  0  0  0  0  0  0  0  0
   36.7740    5.9700   15.8670 H   0  0  0  0  0  0  0  0  0  0  0  0
   35.5710    6.7230   14.7030 H   0  0  0  0  0  0  0  0  0  0  0  0
   38.9990    5.4560   14.8620 H   0  0  0  0  0  0  0  0  0  0  0  0
   39.1440    5.8910   13.0830 H   0  0  0  0  0  0  0  0  0  0  0  0
   39.2190    8.2980   13.6200 H   0  0  0  0  0  0  0  0  0  0  0  0
   40.4280    7.4720   14.6890 H   0  0  0  0  0  0  0  0  0  0  0  0
   40.0360   11.9100   15.8710 H   0  0  0  0  0  0  0  0  0  0  0  0
   38.8590    7.5030   16.6080 H   0  0  0  0  0  0  0  0  0  0  0  0
  1 11  1  0  0  0  0
  1 12  1  0  0  0  0
  1 33  1  0  0  0  0
  2  3  1  0  0  0  0
  2 20  2  0  0  0  0
  2 21  1  0  0  0  0
  3 22  1  0  0  0  0
  3 28  1  0  0  0  0
  3 29  1  0  0  0  0
  4  5  1  0  0  0  0
  4 18  2  0  0  0  0
  4 22  1  0  0  0  0
  5  6  2  0  0  0  0
  5 26  1  0  0  0  0
  6  7  1  0  0  0  0
  6 27  1  0  0  0  0
  7  8  2  0  0  0  0
  7 17  1  0  0  0  0
  8  9  1  0  0  0  0
  8 30  1  0  0  0  0
  9 10  2  0  0  0  0
  9 31  1  0  0  0  0
 10 11  1  0  0  0  0
 10 32  1  0  0  0  0
 11 17  2  0  0  0  0
 12 13  1  0  0  0  0
 12 16  1  0  0  0  0
 12 43  1  0  0  0  0
 13 14  1  0  0  0  0
 13 34  1  0  0  0  0
 13 35  1  0  0  0  0
 14 23  1  0  0  0  0
 14 36  1  0  0  0  0
 14 37  1  0  0  0  0
 15 16  1  0  0  0  0
 15 23  1  0  0  0  0
 15 38  1  0  0  0  0
 15 39  1  0  0  0  0
 16 40  1  0  0  0  0
 16 41  1  0  0  0  0
 17 42  1  0  0  0  0
 18 19  1  0  0  0  0
 18 27  1  0  0  0  0
 19 24  2  0  0  0  0
 19 25  1  0  0  0  0
M  CHG  2  21  -1  25  -1
M  END
$$$$
