CAT-17e
 OpenBabel02232411143D
Structure written by MMmdl.
 46 49  0  0  1  0  0  0  0  0999 V2000
   12.2440    4.1100   -5.4300 C   0  0  0  0  0  0  0  0  0  0  0  0
   12.7430    4.7820   -4.2410 O   0  0  0  0  0  0  0  0  0  0  0  0
   13.5630    4.0820   -3.4040 C   0  0  0  0  0  0  0  0  0  0  0  0
   13.9390    4.8250   -2.2370 C   0  0  0  0  0  0  0  0  0  0  0  0
   14.7280    4.2970   -1.2910 N   0  0  0  0  0  0  0  0  0  0  0  0
   15.1630    3.0110   -1.4390 C   0  0  0  0  0  0  0  0  0  0  0  0
   14.8370    2.2290   -2.5580 C   0  0  0  0  0  0  0  0  0  0  0  0
   15.3190    0.8350   -2.6650 C   0  0  0  0  0  0  0  0  0  0  0  0
   16.2080    0.4570   -3.6860 C   0  0  0  0  0  0  0  0  0  0  0  0
   16.6850   -0.8540   -3.7450 C   0  0  0  0  0  0  0  0  0  0  0  0
   16.2550   -1.8090   -2.8190 C   0  0  0  0  0  0  0  0  0  0  0  0
   15.3240   -1.4510   -1.8360 C   0  0  0  0  0  0  0  0  0  0  0  0
   14.7620   -2.4880   -0.8910 C   0  0  1  0  0  0  0  0  0  0  0  0
   15.0030   -3.9360   -1.2940 C   0  0  0  0  0  0  0  0  0  0  0  0
   16.2510   -4.6770   -0.8470 C   0  0  0  0  0  0  0  0  0  0  0  0
   14.9070   -5.0640   -0.2730 C   0  0  0  0  0  0  0  0  0  0  0  0
   15.2180   -2.1840    0.5170 N   0  3  0  0  0  0  0  0  0  0  0  0
   14.1340   -2.3090    1.4010 C   0  0  0  0  0  0  0  0  0  0  0  0
   14.2940   -2.4590    2.7470 N   0  0  0  0  0  0  0  0  0  0  0  0
   12.9390   -2.2980    0.6910 N   0  0  0  0  0  0  0  0  0  0  0  0
   11.6000   -2.4460    1.3020 C   0  0  0  0  0  0  0  0  0  0  0  0
   13.2070   -2.3510   -0.7650 C   0  0  0  0  0  0  0  0  0  0  0  0
   12.3320   -2.2960   -1.5670 O   0  0  0  0  0  0  0  0  0  0  0  0
   14.8800   -0.1220   -1.7400 C   0  0  0  0  0  0  0  0  0  0  0  0
   14.0300    2.7780   -3.5710 C   0  0  0  0  0  0  0  0  0  0  0  0
   11.6190    4.9150   -5.8900 H   0  0  0  0  0  0  0  0  0  0  0  0
   13.0870    3.8260   -6.0930 H   0  0  0  0  0  0  0  0  0  0  0  0
   11.6240    3.2330   -5.1430 H   0  0  0  0  0  0  0  0  0  0  0  0
   13.5630    5.8500   -2.0920 H   0  0  0  0  0  0  0  0  0  0  0  0
   15.7790    2.6000   -0.6260 H   0  0  0  0  0  0  0  0  0  0  0  0
   16.5290    1.1840   -4.4390 H   0  0  0  0  0  0  0  0  0  0  0  0
   17.4000   -1.1440   -4.5230 H   0  0  0  0  0  0  0  0  0  0  0  0
   16.6460   -2.8270   -2.8650 H   0  0  0  0  0  0  0  0  0  0  0  0
   14.6290   -4.1430   -2.3140 H   0  0  0  0  0  0  0  0  0  0  0  0
   16.7580   -5.3220   -1.5660 H   0  0  0  0  0  0  0  0  0  0  0  0
   16.9760   -4.1670   -0.2090 H   0  0  0  0  0  0  0  0  0  0  0  0
   14.6980   -4.8300    0.7780 H   0  0  0  0  0  0  0  0  0  0  0  0
   14.4290   -6.0030   -0.5850 H   0  0  0  0  0  0  0  0  0  0  0  0
   16.1550   -2.5390    0.8580 H   0  0  0  0  0  0  0  0  0  0  0  0
   13.5820   -2.0890    3.4260 H   0  0  0  0  0  0  0  0  0  0  0  0
   11.0660   -3.3090    0.8170 H   0  0  0  0  0  0  0  0  0  0  0  0
   11.6790   -2.6560    2.4000 H   0  0  0  0  0  0  0  0  0  0  0  0
   11.0170   -1.4990    1.1460 H   0  0  0  0  0  0  0  0  0  0  0  0
   14.1950    0.1630   -0.9410 H   0  0  0  0  0  0  0  0  0  0  0  0
   13.7830    2.1760   -4.4490 H   0  0  0  0  0  0  0  0  0  0  0  0
   15.2770   -2.3900    3.1400 H   0  0  0  0  0  0  0  0  0  0  0  0
  1  2  1  0  0  0  0
  1 26  1  0  0  0  0
  1 27  1  0  0  0  0
  1 28  1  0  0  0  0
  2  3  1  0  0  0  0
  3  4  2  0  0  0  0
  3 25  1  0  0  0  0
  4  5  1  0  0  0  0
  4 29  1  0  0  0  0
  5  6  2  0  0  0  0
  6  7  1  0  0  0  0
  6 30  1  0  0  0  0
  7  8  1  0  0  0  0
  7 25  2  0  0  0  0
  8  9  2  0  0  0  0
  8 24  1  0  0  0  0
  9 10  1  0  0  0  0
  9 31  1  0  0  0  0
 10 11  2  0  0  0  0
 10 32  1  0  0  0  0
 11 12  1  0  0  0  0
 11 33  1  0  0  0  0
 12 24  2  0  0  0  0
 13 12  1  6  0  0  0
 13 14  1  0  0  0  0
 13 17  1  0  0  0  0
 13 22  1  0  0  0  0
 14 15  1  0  0  0  0
 14 16  1  0  0  0  0
 14 34  1  0  0  0  0
 15 16  1  0  0  0  0
 15 35  1  0  0  0  0
 15 36  1  0  0  0  0
 16 37  1  0  0  0  0
 16 38  1  0  0  0  0
 17 18  2  0  0  0  0
 17 39  1  0  0  0  0
 18 19  1  0  0  0  0
 18 20  1  0  0  0  0
 19 40  1  0  0  0  0
 19 46  1  0  0  0  0
 20 21  1  0  0  0  0
 20 22  1  0  0  0  0
 21 41  1  0  0  0  0
 21 42  1  0  0  0  0
 21 43  1  0  0  0  0
 22 23  2  0  0  0  0
 24 44  1  0  0  0  0
 25 45  1  0  0  0  0
M  CHG  1  17   1
M  END
$$$$
