p38a_3flw
 OpenBabel02232411163D
Structure written by MMmdl.
 49 51  0  0  0  0  0  0  0  0999 V2000
   38.3310   36.5940   17.0800 C   0  0  0  0  0  0  0  0  0  0  0  0
   37.6780   36.7610   15.8520 C   0  0  0  0  0  0  0  0  0  0  0  0
   32.5010   39.7760   27.1280 C   0  0  0  0  0  0  0  0  0  0  0  0
   33.8300   40.1690   27.7810 C   0  0  0  0  0  0  0  0  0  0  0  0
   31.2930   38.2230   25.5370 C   0  0  0  0  0  0  0  0  0  0  0  0
   33.5150   34.9420   23.3990 C   0  0  0  0  0  0  0  0  0  0  0  0
   38.0880   35.9780   19.3400 F   0  0  0  0  0  0  0  0  0  0  0  0
   37.5560   36.1160   18.1330 C   0  0  0  0  0  0  0  0  0  0  0  0
   38.3670   37.2780   14.8380 F   0  0  0  0  0  0  0  0  0  0  0  0
   36.3310   36.4540   15.6460 C   0  0  0  0  0  0  0  0  0  0  0  0
   35.5780   35.9560   16.7140 C   0  0  0  0  0  0  0  0  0  0  0  0
   36.1980   35.7770   17.9540 C   0  0  0  0  0  0  0  0  0  0  0  0
   35.4970   35.1210   18.9740 O   0  0  0  0  0  0  0  0  0  0  0  0
   35.0490   35.9290   20.0170 C   0  0  0  0  0  0  0  0  0  0  0  0
   35.0620   37.2810   20.0820 C   0  0  0  0  0  0  0  0  0  0  0  0
   34.5760   37.9210   21.2730 C   0  0  0  0  0  0  0  0  0  0  0  0
   34.5440   39.3320   21.4450 C   0  0  0  0  0  0  0  0  0  0  0  0
   34.1130   39.9260   22.5680 N   0  0  0  0  0  0  0  0  0  0  0  0
   34.5070   35.0410   21.0800 C   0  0  0  0  0  0  0  0  0  0  0  0
   34.4240   33.8330   21.0120 O   0  0  0  0  0  0  0  0  0  0  0  0
   34.0660   35.7290   22.2600 N   0  0  0  0  0  0  0  0  0  0  0  0
   34.1010   37.1310   22.3610 C   0  0  0  0  0  0  0  0  0  0  0  0
   33.6650   37.7010   23.5270 N   0  0  0  0  0  0  0  0  0  0  0  0
   33.6650   39.0820   23.6070 C   0  0  0  0  0  0  0  0  0  0  0  0
   33.1970   39.6660   24.7580 N   0  0  0  0  0  0  0  0  0  0  0  0
   32.6560   38.8590   25.9040 C   0  0  0  0  0  0  0  0  0  0  0  0
   31.0590   36.9170   26.3070 C   0  0  0  0  0  0  0  0  0  0  0  0
   30.7400   37.1930   27.6880 O   0  0  0  0  0  0  0  0  0  0  0  0
   33.5900   40.7610   29.0710 O   0  0  0  0  0  0  0  0  0  0  0  0
   39.3820   36.8620   17.2170 H   0  0  0  0  0  0  0  0  0  0  0  0
   31.8700   39.2250   27.8750 H   0  0  0  0  0  0  0  0  0  0  0  0
   31.9600   40.7020   26.8300 H   0  0  0  0  0  0  0  0  0  0  0  0
   34.4580   39.2800   28.0160 H   0  0  0  0  0  0  0  0  0  0  0  0
   34.3780   40.9070   27.1510 H   0  0  0  0  0  0  0  0  0  0  0  0
   30.4690   38.9420   25.7510 H   0  0  0  0  0  0  0  0  0  0  0  0
   31.2640   37.9830   24.4460 H   0  0  0  0  0  0  0  0  0  0  0  0
   34.0820   35.1770   24.3420 H   0  0  0  0  0  0  0  0  0  0  0  0
   32.4370   35.2140   23.5630 H   0  0  0  0  0  0  0  0  0  0  0  0
   33.5920   33.8450   23.1870 H   0  0  0  0  0  0  0  0  0  0  0  0
   35.8550   36.6110   14.6760 H   0  0  0  0  0  0  0  0  0  0  0  0
   34.5160   35.7290   16.5750 H   0  0  0  0  0  0  0  0  0  0  0  0
   35.4320   37.9120   19.2720 H   0  0  0  0  0  0  0  0  0  0  0  0
   34.8770   39.9920   20.6270 H   0  0  0  0  0  0  0  0  0  0  0  0
   33.2090   40.6960   24.8660 H   0  0  0  0  0  0  0  0  0  0  0  0
   33.4030   38.0460   26.1250 H   0  0  0  0  0  0  0  0  0  0  0  0
   30.2270   36.3390   25.8470 H   0  0  0  0  0  0  0  0  0  0  0  0
   31.9890   36.3030   26.3620 H   0  0  0  0  0  0  0  0  0  0  0  0
   29.7390   37.0650   27.8070 H   0  0  0  0  0  0  0  0  0  0  0  0
   33.0220   41.5850   28.9330 H   0  0  0  0  0  0  0  0  0  0  0  0
  1  2  2  0  0  0  0
  1  8  1  0  0  0  0
  1 30  1  0  0  0  0
  2  9  1  0  0  0  0
  2 10  1  0  0  0  0
  3  4  1  0  0  0  0
  3 26  1  0  0  0  0
  3 31  1  0  0  0  0
  3 32  1  0  0  0  0
  4 29  1  0  0  0  0
  4 33  1  0  0  0  0
  4 34  1  0  0  0  0
  5 26  1  0  0  0  0
  5 27  1  0  0  0  0
  5 35  1  0  0  0  0
  5 36  1  0  0  0  0
  6 21  1  0  0  0  0
  6 37  1  0  0  0  0
  6 38  1  0  0  0  0
  6 39  1  0  0  0  0
  7  8  1  0  0  0  0
  8 12  2  0  0  0  0
 10 11  2  0  0  0  0
 10 40  1  0  0  0  0
 11 12  1  0  0  0  0
 11 41  1  0  0  0  0
 12 13  1  0  0  0  0
 13 14  1  0  0  0  0
 14 15  2  0  0  0  0
 14 19  1  0  0  0  0
 15 16  1  0  0  0  0
 15 42  1  0  0  0  0
 16 17  2  0  0  0  0
 16 22  1  0  0  0  0
 17 18  1  0  0  0  0
 17 43  1  0  0  0  0
 18 24  2  0  0  0  0
 19 20  2  0  0  0  0
 19 21  1  0  0  0  0
 21 22  1  0  0  0  0
 22 23  2  0  0  0  0
 23 24  1  0  0  0  0
 24 25  1  0  0  0  0
 25 26  1  0  0  0  0
 25 44  1  0  0  0  0
 26 45  1  0  0  0  0
 27 28  1  0  0  0  0
 27 46  1  0  0  0  0
 27 47  1  0  0  0  0
 28 48  1  0  0  0  0
 29 49  1  0  0  0  0
M  END
$$$$
