p38a_2n
 OpenBabel02232411163D
Structure written by MMmdl.
 53 56  0  0  0  0  0  0  0  0999 V2000
   36.3600   35.9930   15.8640 C   0  0  0  0  0  0  0  0  0  0  0  0
   34.3650   34.9670   21.3400 C   0  0  0  0  0  0  0  0  0  0  0  0
   35.6590   35.5240   16.9700 C   0  0  0  0  0  0  0  0  0  0  0  0
   33.9320   39.0490   23.9050 C   0  0  0  0  0  0  0  0  0  0  0  0
   34.6720   37.8240   21.5490 C   0  0  0  0  0  0  0  0  0  0  0  0
   35.1420   37.1500   20.3680 C   0  0  0  0  0  0  0  0  0  0  0  0
   37.6510   36.4810   16.1040 C   0  0  0  0  0  0  0  0  0  0  0  0
   38.2540   36.4790   17.3660 C   0  0  0  0  0  0  0  0  0  0  0  0
   37.5150   36.0340   18.4680 C   0  0  0  0  0  0  0  0  0  0  0  0
   34.1430   37.0730   22.6390 C   0  0  0  0  0  0  0  0  0  0  0  0
   34.7290   39.2350   21.7080 C   0  0  0  0  0  0  0  0  0  0  0  0
   35.0280   35.8050   20.3000 C   0  0  0  0  0  0  0  0  0  0  0  0
   36.2160   35.5580   18.2650 C   0  0  0  0  0  0  0  0  0  0  0  0
   34.4420   35.0150   16.8290 F   0  0  0  0  0  0  0  0  0  0  0  0
   35.4430   34.9620   19.2700 O   0  0  0  0  0  0  0  0  0  0  0  0
   34.3730   39.8610   22.8410 N   0  0  0  0  0  0  0  0  0  0  0  0
   34.1490   33.7800   21.2420 O   0  0  0  0  0  0  0  0  0  0  0  0
   33.9810   35.6780   22.5320 N   0  0  0  0  0  0  0  0  0  0  0  0
   33.7940   37.6770   23.8190 N   0  0  0  0  0  0  0  0  0  0  0  0
   33.5570   39.6760   25.0740 N   0  0  0  0  0  0  0  0  0  0  0  0
   35.9210   36.0050   14.8640 H   0  0  0  0  0  0  0  0  0  0  0  0
   35.5890   37.7560   19.5750 H   0  0  0  0  0  0  0  0  0  0  0  0
   39.2750   36.8480   17.4970 H   0  0  0  0  0  0  0  0  0  0  0  0
   37.9480   36.0840   19.4700 H   0  0  0  0  0  0  0  0  0  0  0  0
   35.0800   39.8660   20.8750 H   0  0  0  0  0  0  0  0  0  0  0  0
   33.7370   40.6940   25.1820 H   0  0  0  0  0  0  0  0  0  0  0  0
   38.3210   37.0050   15.0800 F   0  0  0  0  0  0  0  0  0  0  0  0
   32.2770   39.0220   28.6140 C   0  0  0  0  0  0  0  0  0  0  0  0
   32.3900   39.7010   27.2430 C   0  0  0  0  0  0  0  0  0  0  0  0
   33.3700   38.9150   26.3480 C   0  0  0  0  0  0  0  0  0  0  0  0
   34.7240   38.7210   27.0670 C   0  0  0  0  0  0  0  0  0  0  0  0
   34.4980   38.0940   28.4480 C   0  0  0  0  0  0  0  0  0  0  0  0
   33.5710   38.8700   29.2410 O   0  0  0  0  0  0  0  0  0  0  0  0
   31.7970   38.0200   28.5220 H   0  0  0  0  0  0  0  0  0  0  0  0
   31.7340   39.6690   29.3410 H   0  0  0  0  0  0  0  0  0  0  0  0
   32.7500   40.7500   27.3740 H   0  0  0  0  0  0  0  0  0  0  0  0
   31.3870   39.7310   26.7560 H   0  0  0  0  0  0  0  0  0  0  0  0
   32.9230   37.9080   26.1070 H   0  0  0  0  0  0  0  0  0  0  0  0
   35.3770   38.0450   26.4650 H   0  0  0  0  0  0  0  0  0  0  0  0
   35.2400   39.7040   27.1750 H   0  0  0  0  0  0  0  0  0  0  0  0
   34.1100   37.0530   28.3530 H   0  0  0  0  0  0  0  0  0  0  0  0
   35.4250   38.1300   29.0650 H   0  0  0  0  0  0  0  0  0  0  0  0
   33.2980   34.9230   23.6370 C   0  0  0  0  0  0  0  0  0  0  0  0
   33.6810   33.8670   23.6270 H   0  0  0  0  0  0  0  0  0  0  0  0
   33.5690   35.3940   24.6250 H   0  0  0  0  0  0  0  0  0  0  0  0
   31.7720   34.9440   23.4550 C   0  0  0  0  0  0  0  0  0  0  0  0
   31.4160   36.0010   23.4050 H   0  0  0  0  0  0  0  0  0  0  0  0
   31.4890   34.4280   22.5070 H   0  0  0  0  0  0  0  0  0  0  0  0
   31.0590   34.2400   24.6230 C   0  0  0  0  0  0  0  0  0  0  0  0
   31.6760   33.4210   25.0620 H   0  0  0  0  0  0  0  0  0  0  0  0
   30.7560   34.9710   25.4080 H   0  0  0  0  0  0  0  0  0  0  0  0
   29.8930   33.5430   24.1510 O   0  0  0  0  0  0  0  0  0  0  0  0
   29.2010   34.2130   23.8580 H   0  0  0  0  0  0  0  0  0  0  0  0
  1  3  2  0  0  0  0
  1  7  1  0  0  0  0
  1 21  1  0  0  0  0
  2 12  1  0  0  0  0
  2 17  2  0  0  0  0
  2 18  1  0  0  0  0
  3 13  1  0  0  0  0
  3 14  1  0  0  0  0
  4 16  2  0  0  0  0
  4 19  1  0  0  0  0
  4 20  1  0  0  0  0
  5  6  1  0  0  0  0
  5 10  1  0  0  0  0
  5 11  2  0  0  0  0
  6 12  2  0  0  0  0
  6 22  1  0  0  0  0
  7  8  2  0  0  0  0
  7 27  1  0  0  0  0
  8  9  1  0  0  0  0
  8 23  1  0  0  0  0
  9 13  2  0  0  0  0
  9 24  1  0  0  0  0
 10 18  1  0  0  0  0
 10 19  2  0  0  0  0
 11 16  1  0  0  0  0
 11 25  1  0  0  0  0
 12 15  1  0  0  0  0
 13 15  1  0  0  0  0
 18 43  1  0  0  0  0
 20 26  1  0  0  0  0
 20 30  1  0  0  0  0
 28 29  1  0  0  0  0
 28 33  1  0  0  0  0
 28 34  1  0  0  0  0
 28 35  1  0  0  0  0
 29 30  1  0  0  0  0
 29 36  1  0  0  0  0
 29 37  1  0  0  0  0
 30 31  1  0  0  0  0
 30 38  1  0  0  0  0
 31 32  1  0  0  0  0
 31 39  1  0  0  0  0
 31 40  1  0  0  0  0
 32 33  1  0  0  0  0
 32 41  1  0  0  0  0
 32 42  1  0  0  0  0
 43 44  1  0  0  0  0
 43 45  1  0  0  0  0
 43 46  1  0  0  0  0
 46 47  1  0  0  0  0
 46 48  1  0  0  0  0
 46 49  1  0  0  0  0
 49 50  1  0  0  0  0
 49 51  1  0  0  0  0
 49 52  1  0  0  0  0
 52 53  1  0  0  0  0
M  END
$$$$
