CAT-17g
 OpenBabel02232411143D
Structure written by MMmdl.
 42 45  0  0  1  0  0  0  0  0999 V2000
   11.6270   -2.3320    1.2450 C   0  0  0  0  0  0  0  0  0  0  0  0
   12.9780   -2.3220    0.6450 N   0  0  0  0  0  0  0  0  0  0  0  0
   14.1620   -2.3240    1.3730 C   0  0  0  0  0  0  0  0  0  0  0  0
   14.3020   -2.4280    2.7250 N   0  0  0  0  0  0  0  0  0  0  0  0
   15.2590   -2.2610    0.5010 N   0  3  0  0  0  0  0  0  0  0  0  0
   14.8170   -2.5900   -0.9050 C   0  0  1  0  0  0  0  0  0  0  0  0
   15.4110   -1.5760   -1.8590 C   0  0  0  0  0  0  0  0  0  0  0  0
   16.2810   -1.9630   -2.8850 C   0  0  0  0  0  0  0  0  0  0  0  0
   16.7460   -1.0050   -3.7910 C   0  0  0  0  0  0  0  0  0  0  0  0
   16.3680    0.3340   -3.6710 C   0  0  0  0  0  0  0  0  0  0  0  0
   15.5400    0.7380   -2.6090 C   0  0  0  0  0  0  0  0  0  0  0  0
   15.1530    2.1510   -2.4250 C   0  0  0  0  0  0  0  0  0  0  0  0
   14.5890    2.8990   -3.4810 C   0  0  0  0  0  0  0  0  0  0  0  0
   14.1230    4.1640   -3.3180 N   0  0  0  0  0  0  0  0  0  0  0  0
   14.2120    4.7430   -2.0980 C   0  0  0  0  0  0  0  0  0  0  0  0
   14.8190    4.0630   -1.0210 C   0  0  0  0  0  0  0  0  0  0  0  0
   14.9240    4.6680    0.1600 F   0  0  0  0  0  0  0  0  0  0  0  0
   15.2990    2.7640   -1.1690 C   0  0  0  0  0  0  0  0  0  0  0  0
   15.0590   -0.2260   -1.7100 C   0  0  0  0  0  0  0  0  0  0  0  0
   15.0350   -4.0500   -1.2710 C   0  0  0  0  0  0  0  0  0  0  0  0
   16.2540   -4.8070   -0.7730 C   0  0  0  0  0  0  0  0  0  0  0  0
   14.8870   -5.1510   -0.2250 C   0  0  0  0  0  0  0  0  0  0  0  0
   13.2640   -2.4130   -0.8050 C   0  0  0  0  0  0  0  0  0  0  0  0
   12.4030   -2.3580   -1.6220 O   0  0  0  0  0  0  0  0  0  0  0  0
   11.6740   -2.6010    2.3330 H   0  0  0  0  0  0  0  0  0  0  0  0
   11.1630   -1.3160    1.1310 H   0  0  0  0  0  0  0  0  0  0  0  0
   10.9970   -3.1010    0.7190 H   0  0  0  0  0  0  0  0  0  0  0  0
   13.5800   -2.0490    3.3860 H   0  0  0  0  0  0  0  0  0  0  0  0
   16.1870   -2.6140    0.8650 H   0  0  0  0  0  0  0  0  0  0  0  0
   16.5990   -3.0030   -2.9770 H   0  0  0  0  0  0  0  0  0  0  0  0
   17.4180   -1.3090   -4.6010 H   0  0  0  0  0  0  0  0  0  0  0  0
   16.7210    1.0630   -4.4050 H   0  0  0  0  0  0  0  0  0  0  0  0
   14.4930    2.4610   -4.4890 H   0  0  0  0  0  0  0  0  0  0  0  0
   13.7780    5.7510   -1.9820 H   0  0  0  0  0  0  0  0  0  0  0  0
   15.7650    2.2210   -0.3410 H   0  0  0  0  0  0  0  0  0  0  0  0
   14.4100    0.0720   -0.8870 H   0  0  0  0  0  0  0  0  0  0  0  0
   14.6790   -4.2740   -2.2930 H   0  0  0  0  0  0  0  0  0  0  0  0
   16.7660   -5.4830   -1.4560 H   0  0  0  0  0  0  0  0  0  0  0  0
   16.9750   -4.2950   -0.1310 H   0  0  0  0  0  0  0  0  0  0  0  0
   14.6540   -4.8850    0.8130 H   0  0  0  0  0  0  0  0  0  0  0  0
   14.3990   -6.0870   -0.5270 H   0  0  0  0  0  0  0  0  0  0  0  0
   15.2790   -2.3690    3.1310 H   0  0  0  0  0  0  0  0  0  0  0  0
  1  2  1  0  0  0  0
  1 25  1  0  0  0  0
  1 26  1  0  0  0  0
  1 27  1  0  0  0  0
  2  3  1  0  0  0  0
  2 23  1  0  0  0  0
  3  4  1  0  0  0  0
  3  5  2  0  0  0  0
  4 28  1  0  0  0  0
  4 42  1  0  0  0  0
  5  6  1  0  0  0  0
  5 29  1  0  0  0  0
  6  7  1  6  0  0  0
  6 20  1  0  0  0  0
  6 23  1  0  0  0  0
  7  8  2  0  0  0  0
  7 19  1  0  0  0  0
  8  9  1  0  0  0  0
  8 30  1  0  0  0  0
  9 10  2  0  0  0  0
  9 31  1  0  0  0  0
 10 11  1  0  0  0  0
 10 32  1  0  0  0  0
 11 12  1  0  0  0  0
 11 19  2  0  0  0  0
 12 13  2  0  0  0  0
 12 18  1  0  0  0  0
 13 14  1  0  0  0  0
 13 33  1  0  0  0  0
 14 15  2  0  0  0  0
 15 16  1  0  0  0  0
 15 34  1  0  0  0  0
 16 18  2  0  0  0  0
 16 17  1  0  0  0  0
 18 35  1  0  0  0  0
 19 36  1  0  0  0  0
 20 21  1  0  0  0  0
 20 22  1  0  0  0  0
 20 37  1  0  0  0  0
 21 22  1  0  0  0  0
 21 38  1  0  0  0  0
 21 39  1  0  0  0  0
 22 40  1  0  0  0  0
 22 41  1  0  0  0  0
 23 24  2  0  0  0  0
M  CHG  1   5   1
M  END
$$$$
