18637-1
 OpenBabel02232411163D
Structure written by MMmdl.
 53 54  0  0  0  0  0  0  0  0999 V2000
   24.4270   10.9330   30.7510 C   0  0  0  0  0  0  0  0  0  0  0  0
   23.0950   11.2800   30.1200 C   0  0  0  0  0  0  0  0  0  0  0  0
   22.0250   11.3250   31.1370 O   0  0  0  0  0  0  0  0  0  0  0  0
   21.4380   10.1710   31.5330 C   0  0  0  0  0  0  0  0  0  0  0  0
   21.9100    8.9870   31.0820 N   0  0  0  0  0  0  0  0  0  0  0  0
   21.2090    7.8410   31.4350 C   0  0  0  0  0  0  0  0  0  0  0  0
   20.0790    7.8710   32.2470 C   0  0  0  0  0  0  0  0  0  0  0  0
   19.6010    9.1190   32.7280 C   0  0  0  0  0  0  0  0  0  0  0  0
   18.4720    9.1560   33.5070 N   0  0  0  0  0  0  0  0  0  0  0  0
   20.2930   10.3200   32.3710 C   0  0  0  0  0  0  0  0  0  0  0  0
   19.8860   11.6160   32.7520 C   0  0  0  0  0  0  0  0  0  0  0  0
   19.6010   12.7070   33.0220 N   0  0  0  0  0  0  0  0  0  0  0  0
   21.7770    6.6860   30.8570 N   0  0  0  0  0  0  0  0  0  0  0  0
   21.2000    5.3950   30.7900 C   0  0  0  0  0  0  0  0  0  0  0  0
   20.1370    5.1260   31.3080 O   0  0  0  0  0  0  0  0  0  0  0  0
   22.0160    4.4200   29.9490 C   0  0  0  0  0  0  0  0  0  0  0  0
   23.3380    4.0920   30.5730 C   0  0  0  0  0  0  0  0  0  0  0  0
   24.4670    4.9190   30.3790 C   0  0  0  0  0  0  0  0  0  0  0  0
   24.2130    6.0040   29.5580 O   0  0  0  0  0  0  0  0  0  0  0  0
   25.2190    7.0470   29.4400 C   0  0  0  0  0  0  0  0  0  0  0  0
   25.7120    4.6380   30.9580 C   0  0  0  0  0  0  0  0  0  0  0  0
   25.8590    3.4970   31.7510 C   0  0  0  0  0  0  0  0  0  0  0  0
   24.7200    2.6570   31.9520 C   0  0  0  0  0  0  0  0  0  0  0  0
   23.4920    2.9440   31.3640 C   0  0  0  0  0  0  0  0  0  0  0  0
   24.9550    1.6020   32.8230 O   0  0  0  0  0  0  0  0  0  0  0  0
   24.1370    0.4150   32.6580 C   0  0  0  0  0  0  0  0  0  0  0  0
   27.0770    3.1450   32.3980 N   0  0  0  0  0  0  0  0  0  0  0  0
   28.3720    3.5990   32.0420 C   0  0  0  0  0  0  0  0  0  0  0  0
   28.5360    4.3490   31.0940 O   0  0  0  0  0  0  0  0  0  0  0  0
   29.4740    3.0820   32.9130 C   0  0  0  0  0  0  0  0  0  0  0  0
   24.3950    9.9310   31.2410 H   0  0  0  0  0  0  0  0  0  0  0  0
   24.7230   11.6940   31.5040 H   0  0  0  0  0  0  0  0  0  0  0  0
   25.2130   10.8970   29.9560 H   0  0  0  0  0  0  0  0  0  0  0  0
   23.0580   12.3400   29.7700 H   0  0  0  0  0  0  0  0  0  0  0  0
   22.8120   10.5670   29.3140 H   0  0  0  0  0  0  0  0  0  0  0  0
   19.5420    6.9550   32.5030 H   0  0  0  0  0  0  0  0  0  0  0  0
   18.0680   10.0390   33.8170 H   0  0  0  0  0  0  0  0  0  0  0  0
   17.9730    8.2830   33.7660 H   0  0  0  0  0  0  0  0  0  0  0  0
   22.6880    6.8420   30.3580 H   0  0  0  0  0  0  0  0  0  0  0  0
   21.4180    3.4820   29.8120 H   0  0  0  0  0  0  0  0  0  0  0  0
   22.1870    4.8810   28.9390 H   0  0  0  0  0  0  0  0  0  0  0  0
   25.4950    7.4370   30.4420 H   0  0  0  0  0  0  0  0  0  0  0  0
   26.0920    6.6550   28.8790 H   0  0  0  0  0  0  0  0  0  0  0  0
   24.6640    7.8140   28.8490 H   0  0  0  0  0  0  0  0  0  0  0  0
   26.5650    5.3030   30.7860 H   0  0  0  0  0  0  0  0  0  0  0  0
   22.6430    2.2730   31.5190 H   0  0  0  0  0  0  0  0  0  0  0  0
   24.6850   -0.3230   33.2910 H   0  0  0  0  0  0  0  0  0  0  0  0
   23.1190    0.6080   33.0580 H   0  0  0  0  0  0  0  0  0  0  0  0
   24.1210    0.0960   31.5940 H   0  0  0  0  0  0  0  0  0  0  0  0
   27.0090    2.3900   33.1040 H   0  0  0  0  0  0  0  0  0  0  0  0
   29.1260    2.6010   33.8620 H   0  0  0  0  0  0  0  0  0  0  0  0
   30.0780    2.3180   32.3560 H   0  0  0  0  0  0  0  0  0  0  0  0
   30.1640    3.9180   33.2010 H   0  0  0  0  0  0  0  0  0  0  0  0
  1  2  1  0  0  0  0
  1 31  1  0  0  0  0
  1 32  1  0  0  0  0
  1 33  1  0  0  0  0
  2  3  1  0  0  0  0
  2 34  1  0  0  0  0
  2 35  1  0  0  0  0
  3  4  1  0  0  0  0
  4 10  2  0  0  0  0
  4  5  1  0  0  0  0
  5  6  2  0  0  0  0
  6  7  1  0  0  0  0
  6 13  1  0  0  0  0
  7  8  2  0  0  0  0
  7 36  1  0  0  0  0
  8  9  1  0  0  0  0
  8 10  1  0  0  0  0
  9 37  1  0  0  0  0
  9 38  1  0  0  0  0
 10 11  1  0  0  0  0
 11 12  3  0  0  0  0
 13 14  1  0  0  0  0
 13 39  1  0  0  0  0
 14 15  2  0  0  0  0
 14 16  1  0  0  0  0
 16 17  1  0  0  0  0
 16 40  1  0  0  0  0
 16 41  1  0  0  0  0
 17 24  2  0  0  0  0
 17 18  1  0  0  0  0
 18 19  1  0  0  0  0
 18 21  2  0  0  0  0
 19 20  1  0  0  0  0
 20 42  1  0  0  0  0
 20 43  1  0  0  0  0
 20 44  1  0  0  0  0
 21 22  1  0  0  0  0
 21 45  1  0  0  0  0
 22 23  2  0  0  0  0
 22 27  1  0  0  0  0
 23 24  1  0  0  0  0
 23 25  1  0  0  0  0
 24 46  1  0  0  0  0
 25 26  1  0  0  0  0
 26 47  1  0  0  0  0
 26 48  1  0  0  0  0
 26 49  1  0  0  0  0
 27 28  1  0  0  0  0
 27 50  1  0  0  0  0
 28 29  2  0  0  0  0
 28 30  1  0  0  0  0
 30 51  1  0  0  0  0
 30 52  1  0  0  0  0
 30 53  1  0  0  0  0
M  END
$$$$
