18639-1
 OpenBabel02232411163D
Structure written by MMmdl.
 48 49  0  0  0  0  0  0  0  0999 V2000
   24.4360   10.9300   30.7550 C   0  0  0  0  0  0  0  0  0  0  0  0
   23.1070   11.2690   30.1140 C   0  0  0  0  0  0  0  0  0  0  0  0
   22.0310   11.3260   31.1270 O   0  0  0  0  0  0  0  0  0  0  0  0
   21.4510   10.1750   31.5370 C   0  0  0  0  0  0  0  0  0  0  0  0
   21.9350    8.9880   31.1050 N   0  0  0  0  0  0  0  0  0  0  0  0
   21.2430    7.8430   31.4720 C   0  0  0  0  0  0  0  0  0  0  0  0
   20.1070    7.8730   32.2730 C   0  0  0  0  0  0  0  0  0  0  0  0
   19.6150    9.1240   32.7350 C   0  0  0  0  0  0  0  0  0  0  0  0
   18.4790    9.1580   33.5030 N   0  0  0  0  0  0  0  0  0  0  0  0
   20.3020   10.3250   32.3710 C   0  0  0  0  0  0  0  0  0  0  0  0
   19.8880   11.6230   32.7400 C   0  0  0  0  0  0  0  0  0  0  0  0
   19.6000   12.7150   33.0020 N   0  0  0  0  0  0  0  0  0  0  0  0
   21.8340    6.6810   30.9240 N   0  0  0  0  0  0  0  0  0  0  0  0
   21.2710    5.3890   30.8740 C   0  0  0  0  0  0  0  0  0  0  0  0
   20.1980    5.1140   31.3680 O   0  0  0  0  0  0  0  0  0  0  0  0
   22.1060    4.3990   30.0690 C   0  0  0  0  0  0  0  0  0  0  0  0
   23.4820    4.1550   30.6170 C   0  0  0  0  0  0  0  0  0  0  0  0
   24.5630    5.0340   30.2910 C   0  0  0  0  0  0  0  0  0  0  0  0
   24.1830    6.0830   29.4640 O   0  0  0  0  0  0  0  0  0  0  0  0
   25.1240    7.1790   29.2870 C   0  0  0  0  0  0  0  0  0  0  0  0
   25.8510    4.8060   30.7480 C   0  0  0  0  0  0  0  0  0  0  0  0
   26.1070    3.6910   31.5750 C   0  0  0  0  0  0  0  0  0  0  0  0
   27.4690    3.4540   32.0610 N   0  3  0  0  0  0  0  0  0  0  0  0
   27.6290    2.6360   32.9550 O   0  5  0  0  0  0  0  0  0  0  0  0
   28.3900    4.0790   31.5500 O   0  0  0  0  0  0  0  0  0  0  0  0
   25.0510    2.8100   31.9050 C   0  0  0  0  0  0  0  0  0  0  0  0
   23.7470    3.0500   31.4110 C   0  0  0  0  0  0  0  0  0  0  0  0
   25.4210    1.7720   32.7050 O   0  0  0  0  0  0  0  0  0  0  0  0
   24.4400    0.7220   32.9530 C   0  0  0  0  0  0  0  0  0  0  0  0
   25.2260   10.8890   29.9630 H   0  0  0  0  0  0  0  0  0  0  0  0
   24.7260   11.6950   31.5050 H   0  0  0  0  0  0  0  0  0  0  0  0
   24.4020    9.9290   31.2480 H   0  0  0  0  0  0  0  0  0  0  0  0
   23.0700   12.3240   29.7500 H   0  0  0  0  0  0  0  0  0  0  0  0
   22.8270   10.5450   29.3170 H   0  0  0  0  0  0  0  0  0  0  0  0
   19.5780    6.9550   32.5340 H   0  0  0  0  0  0  0  0  0  0  0  0
   17.9810    8.2830   33.7580 H   0  0  0  0  0  0  0  0  0  0  0  0
   18.0660   10.0420   33.8010 H   0  0  0  0  0  0  0  0  0  0  0  0
   22.7410    6.8410   30.4160 H   0  0  0  0  0  0  0  0  0  0  0  0
   21.5470    3.4260   30.0200 H   0  0  0  0  0  0  0  0  0  0  0  0
   22.2020    4.8050   29.0220 H   0  0  0  0  0  0  0  0  0  0  0  0
   25.4810    7.5550   30.2690 H   0  0  0  0  0  0  0  0  0  0  0  0
   25.9550    6.8370   28.6330 H   0  0  0  0  0  0  0  0  0  0  0  0
   24.4830    7.9350   28.7760 H   0  0  0  0  0  0  0  0  0  0  0  0
   26.6810    5.4660   30.4680 H   0  0  0  0  0  0  0  0  0  0  0  0
   22.9420    2.3510   31.6520 H   0  0  0  0  0  0  0  0  0  0  0  0
   25.0430   -0.0080   33.5440 H   0  0  0  0  0  0  0  0  0  0  0  0
   23.5960    1.1210   33.5540 H   0  0  0  0  0  0  0  0  0  0  0  0
   24.1060    0.2760   31.9900 H   0  0  0  0  0  0  0  0  0  0  0  0
  1  2  1  0  0  0  0
  1 30  1  0  0  0  0
  1 31  1  0  0  0  0
  1 32  1  0  0  0  0
  2  3  1  0  0  0  0
  2 33  1  0  0  0  0
  2 34  1  0  0  0  0
  3  4  1  0  0  0  0
  4 10  2  0  0  0  0
  4  5  1  0  0  0  0
  5  6  2  0  0  0  0
  6  7  1  0  0  0  0
  6 13  1  0  0  0  0
  7  8  2  0  0  0  0
  7 35  1  0  0  0  0
  8  9  1  0  0  0  0
  8 10  1  0  0  0  0
  9 36  1  0  0  0  0
  9 37  1  0  0  0  0
 10 11  1  0  0  0  0
 11 12  3  0  0  0  0
 13 14  1  0  0  0  0
 13 38  1  0  0  0  0
 14 15  2  0  0  0  0
 14 16  1  0  0  0  0
 16 17  1  0  0  0  0
 16 39  1  0  0  0  0
 16 40  1  0  0  0  0
 17 27  2  0  0  0  0
 17 18  1  0  0  0  0
 18 19  1  0  0  0  0
 18 21  2  0  0  0  0
 19 20  1  0  0  0  0
 20 41  1  0  0  0  0
 20 42  1  0  0  0  0
 20 43  1  0  0  0  0
 21 22  1  0  0  0  0
 21 44  1  0  0  0  0
 22 23  1  0  0  0  0
 22 26  2  0  0  0  0
 23 24  1  0  0  0  0
 23 25  2  0  0  0  0
 26 27  1  0  0  0  0
 26 28  1  0  0  0  0
 27 45  1  0  0  0  0
 28 29  1  0  0  0  0
 29 46  1  0  0  0  0
 29 47  1  0  0  0  0
 29 48  1  0  0  0  0
M  CHG  2  23   1  24  -1
M  END
$$$$
