p38a_3fmh
 OpenBabel02232411163D
Structure written by MMmdl.
 46 49  0  0  1  0  0  0  0  0999 V2000
   38.3930   37.2730   14.8460 F   0  0  0  0  0  0  0  0  0  0  0  0
   37.7040   36.7380   15.8500 C   0  0  0  0  0  0  0  0  0  0  0  0
   36.3660   36.4030   15.6280 C   0  0  0  0  0  0  0  0  0  0  0  0
   35.6100   35.8930   16.6890 C   0  0  0  0  0  0  0  0  0  0  0  0
   38.3460   36.5840   17.0860 C   0  0  0  0  0  0  0  0  0  0  0  0
   37.5680   36.0930   18.1310 C   0  0  0  0  0  0  0  0  0  0  0  0
   38.0910   35.9680   19.3430 F   0  0  0  0  0  0  0  0  0  0  0  0
   36.2180   35.7280   17.9360 C   0  0  0  0  0  0  0  0  0  0  0  0
   35.5060   35.0640   18.9410 O   0  0  0  0  0  0  0  0  0  0  0  0
   35.0970   35.8500   20.0170 C   0  0  0  0  0  0  0  0  0  0  0  0
   34.5570   34.9430   21.0650 C   0  0  0  0  0  0  0  0  0  0  0  0
   34.4300   33.7420   20.9590 O   0  0  0  0  0  0  0  0  0  0  0  0
   34.1780   35.6050   22.2820 N   0  0  0  0  0  0  0  0  0  0  0  0
   33.6780   34.7950   23.4280 C   0  0  0  0  0  0  0  0  0  0  0  0
   34.2470   37.0020   22.4210 C   0  0  0  0  0  0  0  0  0  0  0  0
   33.8580   37.5500   23.6160 N   0  0  0  0  0  0  0  0  0  0  0  0
   35.1470   37.1980   20.1210 C   0  0  0  0  0  0  0  0  0  0  0  0
   34.7110   37.8140   21.3450 C   0  0  0  0  0  0  0  0  0  0  0  0
   34.7270   39.2190   21.5590 C   0  0  0  0  0  0  0  0  0  0  0  0
   34.3540   39.7900   22.7150 N   0  0  0  0  0  0  0  0  0  0  0  0
   33.9160   38.9250   23.7370 C   0  0  0  0  0  0  0  0  0  0  0  0
   33.5110   39.4850   24.9260 N   0  0  0  0  0  0  0  0  0  0  0  0
   32.8550   38.6850   25.9950 C   0  0  2  0  0  0  0  0  0  0  0  0
   31.8090   39.5570   26.6900 C   0  0  0  0  0  0  0  0  0  0  0  0
   33.8910   38.0660   26.9810 C   0  0  0  0  0  0  0  0  0  0  0  0
   34.5830   39.0490   27.8400 N   0  0  0  0  0  0  0  0  0  0  0  0
   35.7170   39.7120   27.4850 N   0  0  0  0  0  0  0  0  0  0  0  0
   36.0010   40.4940   28.5660 C   0  0  0  0  0  0  0  0  0  0  0  0
   35.0170   40.2770   29.5670 N   0  0  0  0  0  0  0  0  0  0  0  0
   34.1760   39.4070   29.1030 N   0  0  0  0  0  0  0  0  0  0  0  0
   35.8990   36.5490   14.6530 H   0  0  0  0  0  0  0  0  0  0  0  0
   34.5550   35.6450   16.5370 H   0  0  0  0  0  0  0  0  0  0  0  0
   39.3900   36.8720   17.2350 H   0  0  0  0  0  0  0  0  0  0  0  0
   34.2820   35.0180   24.3510 H   0  0  0  0  0  0  0  0  0  0  0  0
   32.6050   35.0530   23.6410 H   0  0  0  0  0  0  0  0  0  0  0  0
   33.7550   33.7020   23.1960 H   0  0  0  0  0  0  0  0  0  0  0  0
   35.5120   37.8430   19.3200 H   0  0  0  0  0  0  0  0  0  0  0  0
   35.0500   39.8920   20.7470 H   0  0  0  0  0  0  0  0  0  0  0  0
   33.5820   40.5090   25.0760 H   0  0  0  0  0  0  0  0  0  0  0  0
   32.3260   37.7940   25.5280 H   0  0  0  0  0  0  0  0  0  0  0  0
   31.3410   38.9850   27.5260 H   0  0  0  0  0  0  0  0  0  0  0  0
   32.2500   40.4930   27.0950 H   0  0  0  0  0  0  0  0  0  0  0  0
   31.0130   39.8250   25.9550 H   0  0  0  0  0  0  0  0  0  0  0  0
   33.3340   37.3410   27.6470 H   0  0  0  0  0  0  0  0  0  0  0  0
   34.6550   37.4800   26.3920 H   0  0  0  0  0  0  0  0  0  0  0  0
   36.8410   41.1800   28.6710 H   0  0  0  0  0  0  0  0  0  0  0  0
  1  2  1  0  0  0  0
  2  3  2  0  0  0  0
  2  5  1  0  0  0  0
  3  4  1  0  0  0  0
  3 31  1  0  0  0  0
  4  8  2  0  0  0  0
  4 32  1  0  0  0  0
  5  6  2  0  0  0  0
  5 33  1  0  0  0  0
  6  7  1  0  0  0  0
  6  8  1  0  0  0  0
  8  9  1  0  0  0  0
  9 10  1  0  0  0  0
 10 11  1  0  0  0  0
 10 17  2  0  0  0  0
 11 12  2  0  0  0  0
 11 13  1  0  0  0  0
 13 14  1  0  0  0  0
 13 15  1  0  0  0  0
 14 34  1  0  0  0  0
 14 35  1  0  0  0  0
 14 36  1  0  0  0  0
 15 16  2  0  0  0  0
 15 18  1  0  0  0  0
 16 21  1  0  0  0  0
 17 18  1  0  0  0  0
 17 37  1  0  0  0  0
 18 19  2  0  0  0  0
 19 20  1  0  0  0  0
 19 38  1  0  0  0  0
 20 21  2  0  0  0  0
 21 22  1  0  0  0  0
 22 23  1  0  0  0  0
 22 39  1  0  0  0  0
 23 24  1  0  0  0  0
 23 25  1  0  0  0  0
 23 40  1  6  0  0  0
 24 41  1  0  0  0  0
 24 42  1  0  0  0  0
 24 43  1  0  0  0  0
 25 26  1  0  0  0  0
 25 44  1  0  0  0  0
 25 45  1  0  0  0  0
 26 27  1  0  0  0  0
 26 30  1  0  0  0  0
 27 28  2  0  0  0  0
 28 29  1  0  0  0  0
 28 46  1  0  0  0  0
 29 30  2  0  0  0  0
M  END
$$$$
