p38a_2bb
 OpenBabel02232411163D
Structure written by MMmdl.
 44 46  0  0  0  0  0  0  0  0999 V2000
   38.3000   36.5550   17.1780 C   0  0  0  0  0  0  0  0  0  0  0  0
   34.3400   35.0680   21.1650 C   0  0  0  0  0  0  0  0  0  0  0  0
   37.5390   36.1050   18.2530 C   0  0  0  0  0  0  0  0  0  0  0  0
   33.4180   39.1200   23.6530 C   0  0  0  0  0  0  0  0  0  0  0  0
   31.7970   39.1350   25.5780 C   0  0  0  0  0  0  0  0  0  0  0  0
   34.5150   37.9370   21.4150 C   0  0  0  0  0  0  0  0  0  0  0  0
   35.0760   37.2930   20.2560 C   0  0  0  0  0  0  0  0  0  0  0  0
   37.6290   36.7000   15.9560 C   0  0  0  0  0  0  0  0  0  0  0  0
   36.2760   36.3970   15.7790 C   0  0  0  0  0  0  0  0  0  0  0  0
   35.5370   35.9330   16.8720 C   0  0  0  0  0  0  0  0  0  0  0  0
   33.8470   37.1650   22.4110 C   0  0  0  0  0  0  0  0  0  0  0  0
   34.5950   39.3380   21.6360 C   0  0  0  0  0  0  0  0  0  0  0  0
   35.0000   35.9470   20.1600 C   0  0  0  0  0  0  0  0  0  0  0  0
   36.1760   35.7740   18.1050 C   0  0  0  0  0  0  0  0  0  0  0  0
   33.0480   34.9910   23.3310 C   0  0  0  0  0  0  0  0  0  0  0  0
   38.0920   35.9800   19.4520 F   0  0  0  0  0  0  0  0  0  0  0  0
   35.4960   35.1300   19.1480 O   0  0  0  0  0  0  0  0  0  0  0  0
   34.0890   39.9380   22.7240 N   0  0  0  0  0  0  0  0  0  0  0  0
   34.2730   33.8600   21.1070 O   0  0  0  0  0  0  0  0  0  0  0  0
   33.7540   35.7700   22.2770 N   0  0  0  0  0  0  0  0  0  0  0  0
   33.2930   37.7520   23.5220 N   0  0  0  0  0  0  0  0  0  0  0  0
   32.8930   39.7340   24.7710 N   0  0  0  0  0  0  0  0  0  0  0  0
   39.3550   36.8190   17.2910 H   0  0  0  0  0  0  0  0  0  0  0  0
   31.6510   38.0490   25.3190 H   0  0  0  0  0  0  0  0  0  0  0  0
   35.5440   37.9200   19.4940 H   0  0  0  0  0  0  0  0  0  0  0  0
   35.7870   36.5290   14.8110 H   0  0  0  0  0  0  0  0  0  0  0  0
   34.4710   35.7120   16.7550 H   0  0  0  0  0  0  0  0  0  0  0  0
   35.0820   39.9830   20.8860 H   0  0  0  0  0  0  0  0  0  0  0  0
   33.6790   34.9320   24.2570 H   0  0  0  0  0  0  0  0  0  0  0  0
   32.0760   35.4920   23.5990 H   0  0  0  0  0  0  0  0  0  0  0  0
   32.8270   33.9550   22.9670 H   0  0  0  0  0  0  0  0  0  0  0  0
   33.0440   40.7490   24.9210 H   0  0  0  0  0  0  0  0  0  0  0  0
   38.3070   37.1890   14.9210 F   0  0  0  0  0  0  0  0  0  0  0  0
   32.0400   39.3070   27.0810 C   0  0  0  0  0  0  0  0  0  0  0  0
   30.8400   39.6760   25.3110 H   0  0  0  0  0  0  0  0  0  0  0  0
   32.2250   40.3970   27.2920 H   0  0  0  0  0  0  0  0  0  0  0  0
   31.0710   39.0380   27.5940 H   0  0  0  0  0  0  0  0  0  0  0  0
   33.1940   36.7520   27.1050 C   0  0  0  0  0  0  0  0  0  0  0  0
   33.3390   38.3360   27.7880 S   0  0  0  0  0  0  0  0  0  0  0  0
   34.6640   38.9080   27.4780 O   0  0  0  0  0  0  0  0  0  0  0  0
   33.1400   38.2750   29.2630 O   0  0  0  0  0  0  0  0  0  0  0  0
   32.1400   36.3650   27.1610 H   0  0  0  0  0  0  0  0  0  0  0  0
   33.4820   36.7160   26.0210 H   0  0  0  0  0  0  0  0  0  0  0  0
   33.8340   35.9950   27.6290 H   0  0  0  0  0  0  0  0  0  0  0  0
  1  3  2  0  0  0  0
  1  8  1  0  0  0  0
  1 23  1  0  0  0  0
  2 13  1  0  0  0  0
  2 19  2  0  0  0  0
  2 20  1  0  0  0  0
  3 14  1  0  0  0  0
  3 16  1  0  0  0  0
  4 18  2  0  0  0  0
  4 21  1  0  0  0  0
  4 22  1  0  0  0  0
  5 22  1  0  0  0  0
  5 24  1  0  0  0  0
  5 34  1  0  0  0  0
  5 35  1  0  0  0  0
  6  7  1  0  0  0  0
  6 11  1  0  0  0  0
  6 12  2  0  0  0  0
  7 13  2  0  0  0  0
  7 25  1  0  0  0  0
  8  9  2  0  0  0  0
  8 33  1  0  0  0  0
  9 10  1  0  0  0  0
  9 26  1  0  0  0  0
 10 14  2  0  0  0  0
 10 27  1  0  0  0  0
 11 20  1  0  0  0  0
 11 21  2  0  0  0  0
 12 18  1  0  0  0  0
 12 28  1  0  0  0  0
 13 17  1  0  0  0  0
 14 17  1  0  0  0  0
 15 20  1  0  0  0  0
 15 29  1  0  0  0  0
 15 30  1  0  0  0  0
 15 31  1  0  0  0  0
 22 32  1  0  0  0  0
 34 36  1  0  0  0  0
 34 37  1  0  0  0  0
 34 39  1  0  0  0  0
 38 39  1  0  0  0  0
 38 42  1  0  0  0  0
 38 43  1  0  0  0  0
 38 44  1  0  0  0  0
 39 40  2  0  0  0  0
 39 41  2  0  0  0  0
M  END
$$$$
