27
 OpenBabel02232411163D
Structure written by MMmdl.
 38 40  0  0  0  0  0  0  0  0999 V2000
    3.4000  -48.2140    7.0950 O   0  0  0  0  0  0  0  0  0  0  0  0
    3.0060  -49.1740    6.4200 C   0  0  0  0  0  0  0  0  0  0  0  0
    3.7130  -49.9830    5.7870 O   0  5  0  0  0  0  0  0  0  0  0  0
    1.4920  -49.4550    6.3530 C   0  0  0  0  0  0  0  0  0  0  0  0
   -0.3720  -50.7750    6.5210 C   0  0  0  0  0  0  0  0  0  0  0  0
   -1.2980  -51.8080    6.7490 C   0  0  0  0  0  0  0  0  0  0  0  0
   -2.6290  -51.5480    6.4580 C   0  0  0  0  0  0  0  0  0  0  0  0
   -3.0390  -50.2940    5.9470 C   0  0  0  0  0  0  0  0  0  0  0  0
   -2.1290  -49.2690    5.7240 C   0  0  0  0  0  0  0  0  0  0  0  0
   -0.7720  -49.4850    6.0150 C   0  0  0  0  0  0  0  0  0  0  0  0
    0.4220  -48.6710    5.9370 C   0  0  0  0  0  0  0  0  0  0  0  0
    0.4210  -47.2530    5.4920 C   0  0  0  0  0  0  0  0  0  0  0  0
    0.3180  -46.2540    6.6600 C   0  0  0  0  0  0  0  0  0  0  0  0
   -1.0130  -46.3080    7.4090 C   0  0  0  0  0  0  0  0  0  0  0  0
   -1.9820  -45.7430    6.4510 O   0  0  0  0  0  0  0  0  0  0  0  0
   -3.2380  -45.4450    6.8920 C   0  0  0  0  0  0  0  0  0  0  0  0
   -3.7930  -45.8660    8.1120 C   0  0  0  0  0  0  0  0  0  0  0  0
   -5.0980  -45.4730    8.4250 C   0  0  0  0  0  0  0  0  0  0  0  0
   -5.8390  -44.6790    7.5470 C   0  0  0  0  0  0  0  0  0  0  0  0
   -5.2760  -44.2780    6.3250 C   0  0  0  0  0  0  0  0  0  0  0  0
   -3.9820  -44.6540    5.9840 C   0  0  0  0  0  0  0  0  0  0  0  0
   -0.9900  -52.7760    7.1440 H   0  0  0  0  0  0  0  0  0  0  0  0
   -3.3830  -52.3180    6.6260 H   0  0  0  0  0  0  0  0  0  0  0  0
   -4.0960  -50.1400    5.7290 H   0  0  0  0  0  0  0  0  0  0  0  0
   -2.4720  -48.3110    5.3310 H   0  0  0  0  0  0  0  0  0  0  0  0
   -0.4620  -47.0870    4.8210 H   0  0  0  0  0  0  0  0  0  0  0  0
    1.3500  -47.0180    4.9180 H   0  0  0  0  0  0  0  0  0  0  0  0
    0.4400  -45.2200    6.2600 H   0  0  0  0  0  0  0  0  0  0  0  0
    1.1300  -46.4640    7.3990 H   0  0  0  0  0  0  0  0  0  0  0  0
   -1.0080  -45.6460    8.3010 H   0  0  0  0  0  0  0  0  0  0  0  0
   -1.3490  -47.3420    7.6340 H   0  0  0  0  0  0  0  0  0  0  0  0
   -3.2510  -46.4990    8.8090 H   0  0  0  0  0  0  0  0  0  0  0  0
   -3.5460  -44.3530    5.0360 H   0  0  0  0  0  0  0  0  0  0  0  0
    1.0170  -50.7310    6.7180 N   0  0  0  0  0  0  0  0  0  0  0  0
    1.5600  -51.5200    7.0490 H   0  0  0  0  0  0  0  0  0  0  0  0
   -5.8640  -43.6680    5.6370 H   0  0  0  0  0  0  0  0  0  0  0  0
   -6.8530  -44.3790    7.8010 H   0  0  0  0  0  0  0  0  0  0  0  0
   -5.5490  -45.7950    9.3670 H   0  0  0  0  0  0  0  0  0  0  0  0
  1  2  2  0  0  0  0
  2  3  1  0  0  0  0
  2  4  1  0  0  0  0
  4 11  2  0  0  0  0
  4 34  1  0  0  0  0
  5  6  2  0  0  0  0
  5 10  1  0  0  0  0
  5 34  1  0  0  0  0
  6  7  1  0  0  0  0
  6 22  1  0  0  0  0
  7  8  2  0  0  0  0
  7 23  1  0  0  0  0
  8  9  1  0  0  0  0
  8 24  1  0  0  0  0
  9 10  2  0  0  0  0
  9 25  1  0  0  0  0
 10 11  1  0  0  0  0
 11 12  1  0  0  0  0
 12 26  1  0  0  0  0
 12 27  1  0  0  0  0
 12 13  1  0  0  0  0
 13 14  1  0  0  0  0
 13 28  1  0  0  0  0
 13 29  1  0  0  0  0
 14 15  1  0  0  0  0
 14 30  1  0  0  0  0
 14 31  1  0  0  0  0
 15 16  1  0  0  0  0
 16 17  2  0  0  0  0
 16 21  1  0  0  0  0
 17 18  1  0  0  0  0
 17 32  1  0  0  0  0
 18 19  2  0  0  0  0
 18 38  1  0  0  0  0
 19 20  1  0  0  0  0
 19 37  1  0  0  0  0
 20 21  2  0  0  0  0
 20 36  1  0  0  0  0
 21 33  1  0  0  0  0
 34 35  1  0  0  0  0
M  CHG  1   3  -1
M  END
$$$$
