p38a_2bb
 OpenBabel02232411163D
Structure written by MMmdl.
 44 46  0  0  0  0  0  0  0  0999 V2000
   36.3340   35.8670   16.0070 C   0  0  0  0  0  0  0  0  0  0  0  0
   34.5720   35.0580   21.6580 C   0  0  0  0  0  0  0  0  0  0  0  0
   35.5580   35.4770   17.0950 C   0  0  0  0  0  0  0  0  0  0  0  0
   34.5010   39.1560   24.2280 C   0  0  0  0  0  0  0  0  0  0  0  0
   34.5850   39.0540   26.7380 C   0  0  0  0  0  0  0  0  0  0  0  0
   34.7660   37.9260   21.7740 C   0  0  0  0  0  0  0  0  0  0  0  0
   35.0120   37.2540   20.5270 C   0  0  0  0  0  0  0  0  0  0  0  0
   37.6190   36.3440   16.2960 C   0  0  0  0  0  0  0  0  0  0  0  0
   38.1510   36.3930   17.5870 C   0  0  0  0  0  0  0  0  0  0  0  0
   37.3420   36.0210   18.6660 C   0  0  0  0  0  0  0  0  0  0  0  0
   34.5920   37.1670   22.9710 C   0  0  0  0  0  0  0  0  0  0  0  0
   34.6980   39.3390   21.8970 C   0  0  0  0  0  0  0  0  0  0  0  0
   34.9610   35.9020   20.4970 C   0  0  0  0  0  0  0  0  0  0  0  0
   36.0420   35.5730   18.4170 C   0  0  0  0  0  0  0  0  0  0  0  0
   34.3320   35.0040   24.1780 C   0  0  0  0  0  0  0  0  0  0  0  0
   34.3390   34.9870   16.9110 F   0  0  0  0  0  0  0  0  0  0  0  0
   35.1700   35.0760   19.3930 O   0  0  0  0  0  0  0  0  0  0  0  0
   34.5480   39.9660   23.0750 N   0  0  0  0  0  0  0  0  0  0  0  0
   34.3100   33.8780   21.6160 O   0  0  0  0  0  0  0  0  0  0  0  0
   34.5070   35.7680   22.9130 N   0  0  0  0  0  0  0  0  0  0  0  0
   34.4810   37.7760   24.1960 N   0  0  0  0  0  0  0  0  0  0  0  0
   34.5240   39.7960   25.4450 N   0  0  0  0  0  0  0  0  0  0  0  0
   35.9520   35.8330   14.9830 H   0  0  0  0  0  0  0  0  0  0  0  0
   35.6470   39.1490   27.1040 H   0  0  0  0  0  0  0  0  0  0  0  0
   35.2520   37.8640   19.6510 H   0  0  0  0  0  0  0  0  0  0  0  0
   39.1730   36.7470   17.7540 H   0  0  0  0  0  0  0  0  0  0  0  0
   37.7230   36.1060   19.6860 H   0  0  0  0  0  0  0  0  0  0  0  0
   34.7630   39.9740   20.9960 H   0  0  0  0  0  0  0  0  0  0  0  0
   35.1480   35.2710   24.9060 H   0  0  0  0  0  0  0  0  0  0  0  0
   33.3490   35.2630   24.6560 H   0  0  0  0  0  0  0  0  0  0  0  0
   34.3680   33.9020   23.9770 H   0  0  0  0  0  0  0  0  0  0  0  0
   34.3060   40.8070   25.5010 H   0  0  0  0  0  0  0  0  0  0  0  0
   38.3560   36.8040   15.2870 F   0  0  0  0  0  0  0  0  0  0  0  0
   33.6050   39.6410   27.7600 C   0  0  0  0  0  0  0  0  0  0  0  0
   34.3450   37.9650   26.5650 H   0  0  0  0  0  0  0  0  0  0  0  0
   33.7260   40.7580   27.7890 H   0  0  0  0  0  0  0  0  0  0  0  0
   32.5590   39.4480   27.3940 H   0  0  0  0  0  0  0  0  0  0  0  0
   33.8190   37.2570   29.2150 C   0  0  0  0  0  0  0  0  0  0  0  0
   33.7950   38.9830   29.3930 S   0  0  0  0  0  0  0  0  0  0  0  0
   35.0620   39.4570   30.0030 O   0  0  0  0  0  0  0  0  0  0  0  0
   32.6360   39.3960   30.2230 O   0  0  0  0  0  0  0  0  0  0  0  0
   32.9850   36.8940   28.5550 H   0  0  0  0  0  0  0  0  0  0  0  0
   34.7660   36.8710   28.7560 H   0  0  0  0  0  0  0  0  0  0  0  0
   33.7030   36.7260   30.1940 H   0  0  0  0  0  0  0  0  0  0  0  0
  1  3  2  0  0  0  0
  1  8  1  0  0  0  0
  1 23  1  0  0  0  0
  2 13  1  0  0  0  0
  2 19  2  0  0  0  0
  2 20  1  0  0  0  0
  3 14  1  0  0  0  0
  3 16  1  0  0  0  0
  4 18  2  0  0  0  0
  4 21  1  0  0  0  0
  4 22  1  0  0  0  0
  5 22  1  0  0  0  0
  5 24  1  0  0  0  0
  5 34  1  0  0  0  0
  5 35  1  0  0  0  0
  6  7  1  0  0  0  0
  6 11  1  0  0  0  0
  6 12  2  0  0  0  0
  7 13  2  0  0  0  0
  7 25  1  0  0  0  0
  8  9  2  0  0  0  0
  8 33  1  0  0  0  0
  9 10  1  0  0  0  0
  9 26  1  0  0  0  0
 10 14  2  0  0  0  0
 10 27  1  0  0  0  0
 11 20  1  0  0  0  0
 11 21  2  0  0  0  0
 12 18  1  0  0  0  0
 12 28  1  0  0  0  0
 13 17  1  0  0  0  0
 14 17  1  0  0  0  0
 15 20  1  0  0  0  0
 15 29  1  0  0  0  0
 15 30  1  0  0  0  0
 15 31  1  0  0  0  0
 22 32  1  0  0  0  0
 34 36  1  0  0  0  0
 34 37  1  0  0  0  0
 34 39  1  0  0  0  0
 38 39  1  0  0  0  0
 38 42  1  0  0  0  0
 38 43  1  0  0  0  0
 38 44  1  0  0  0  0
 39 40  2  0  0  0  0
 39 41  2  0  0  0  0
M  END
$$$$
