18639-1
 OpenBabel02232411163D
Structure written by MMmdl.
 48 49  0  0  0  0  0  0  0  0999 V2000
   24.4740   10.8360   30.7940 C   0  0  0  0  0  0  0  0  0  0  0  0
   23.1600   11.2040   30.1370 C   0  0  0  0  0  0  0  0  0  0  0  0
   22.0720   11.2730   31.1360 O   0  0  0  0  0  0  0  0  0  0  0  0
   21.4840   10.1260   31.5480 C   0  0  0  0  0  0  0  0  0  0  0  0
   21.9560    8.9370   31.1050 N   0  0  0  0  0  0  0  0  0  0  0  0
   21.2590    7.7960   31.4700 C   0  0  0  0  0  0  0  0  0  0  0  0
   20.1260    7.8290   32.2750 C   0  0  0  0  0  0  0  0  0  0  0  0
   19.6460    9.0810   32.7480 C   0  0  0  0  0  0  0  0  0  0  0  0
   18.5090    9.1180   33.5140 N   0  0  0  0  0  0  0  0  0  0  0  0
   20.3430   10.2790   32.3910 C   0  0  0  0  0  0  0  0  0  0  0  0
   19.9460   11.5770   32.7780 C   0  0  0  0  0  0  0  0  0  0  0  0
   19.6720   12.6690   33.0560 N   0  0  0  0  0  0  0  0  0  0  0  0
   21.8400    6.6310   30.9170 N   0  0  0  0  0  0  0  0  0  0  0  0
   21.2550    5.3500   30.8470 C   0  0  0  0  0  0  0  0  0  0  0  0
   20.1720    5.0900   31.3280 O   0  0  0  0  0  0  0  0  0  0  0  0
   22.0800    4.3550   30.0390 C   0  0  0  0  0  0  0  0  0  0  0  0
   23.4470    4.0860   30.5960 C   0  0  0  0  0  0  0  0  0  0  0  0
   24.5430    4.9490   30.2800 C   0  0  0  0  0  0  0  0  0  0  0  0
   24.1850    6.0020   29.4480 O   0  0  0  0  0  0  0  0  0  0  0  0
   25.1450    7.0820   29.2730 C   0  0  0  0  0  0  0  0  0  0  0  0
   25.8240    4.7040   30.7500 C   0  0  0  0  0  0  0  0  0  0  0  0
   26.0540    3.5870   31.5810 C   0  0  0  0  0  0  0  0  0  0  0  0
   27.4070    3.3310   32.0840 N   0  3  0  0  0  0  0  0  0  0  0  0
   27.5440    2.5210   32.9880 O   0  5  0  0  0  0  0  0  0  0  0  0
   28.3440    3.9350   31.5750 O   0  0  0  0  0  0  0  0  0  0  0  0
   24.9830    2.7210   31.9010 C   0  0  0  0  0  0  0  0  0  0  0  0
   23.6880    2.9780   31.3920 C   0  0  0  0  0  0  0  0  0  0  0  0
   25.3290    1.6800   32.7090 O   0  0  0  0  0  0  0  0  0  0  0  0
   24.3290    0.6460   32.9500 C   0  0  0  0  0  0  0  0  0  0  0  0
   25.2700   10.7660   30.0100 H   0  0  0  0  0  0  0  0  0  0  0  0
   24.7770   11.6020   31.5380 H   0  0  0  0  0  0  0  0  0  0  0  0
   24.4090    9.8430   31.2970 H   0  0  0  0  0  0  0  0  0  0  0  0
   23.1460   12.2610   29.7790 H   0  0  0  0  0  0  0  0  0  0  0  0
   22.8770   10.4890   29.3320 H   0  0  0  0  0  0  0  0  0  0  0  0
   19.5890    6.9140   32.5310 H   0  0  0  0  0  0  0  0  0  0  0  0
   18.0120    8.2450   33.7730 H   0  0  0  0  0  0  0  0  0  0  0  0
   18.1050   10.0020   33.8240 H   0  0  0  0  0  0  0  0  0  0  0  0
   22.7500    6.7850   30.4120 H   0  0  0  0  0  0  0  0  0  0  0  0
   21.5070    3.3910   29.9750 H   0  0  0  0  0  0  0  0  0  0  0  0
   22.1900    4.7710   28.9970 H   0  0  0  0  0  0  0  0  0  0  0  0
   25.5000    7.4580   30.2550 H   0  0  0  0  0  0  0  0  0  0  0  0
   25.9760    6.7240   28.6280 H   0  0  0  0  0  0  0  0  0  0  0  0
   24.5200    7.8450   28.7530 H   0  0  0  0  0  0  0  0  0  0  0  0
   26.6660    5.3510   30.4790 H   0  0  0  0  0  0  0  0  0  0  0  0
   22.8710    2.2890   31.6250 H   0  0  0  0  0  0  0  0  0  0  0  0
   24.9130   -0.0870   33.5560 H   0  0  0  0  0  0  0  0  0  0  0  0
   23.4810    1.0620   33.5340 H   0  0  0  0  0  0  0  0  0  0  0  0
   24.0050    0.1980   31.9850 H   0  0  0  0  0  0  0  0  0  0  0  0
  1  2  1  0  0  0  0
  1 30  1  0  0  0  0
  1 31  1  0  0  0  0
  1 32  1  0  0  0  0
  2  3  1  0  0  0  0
  2 33  1  0  0  0  0
  2 34  1  0  0  0  0
  3  4  1  0  0  0  0
  4 10  2  0  0  0  0
  4  5  1  0  0  0  0
  5  6  2  0  0  0  0
  6  7  1  0  0  0  0
  6 13  1  0  0  0  0
  7  8  2  0  0  0  0
  7 35  1  0  0  0  0
  8  9  1  0  0  0  0
  8 10  1  0  0  0  0
  9 36  1  0  0  0  0
  9 37  1  0  0  0  0
 10 11  1  0  0  0  0
 11 12  3  0  0  0  0
 13 14  1  0  0  0  0
 13 38  1  0  0  0  0
 14 15  2  0  0  0  0
 14 16  1  0  0  0  0
 16 17  1  0  0  0  0
 16 39  1  0  0  0  0
 16 40  1  0  0  0  0
 17 27  2  0  0  0  0
 17 18  1  0  0  0  0
 18 19  1  0  0  0  0
 18 21  2  0  0  0  0
 19 20  1  0  0  0  0
 20 41  1  0  0  0  0
 20 42  1  0  0  0  0
 20 43  1  0  0  0  0
 21 22  1  0  0  0  0
 21 44  1  0  0  0  0
 22 23  1  0  0  0  0
 22 26  2  0  0  0  0
 23 24  1  0  0  0  0
 23 25  2  0  0  0  0
 26 27  1  0  0  0  0
 26 28  1  0  0  0  0
 27 45  1  0  0  0  0
 28 29  1  0  0  0  0
 29 46  1  0  0  0  0
 29 47  1  0  0  0  0
 29 48  1  0  0  0  0
M  CHG  2  23   1  24  -1
M  END
$$$$
