p38a_2e
 OpenBabel02232411163D
Structure written by MMmdl.
 46 49  0  0  0  0  0  0  0  0999 V2000
   34.2320   38.2690   26.9590 C   0  0  0  0  0  0  0  0  0  0  0  0
   33.6470   37.7800   28.2910 C   0  0  0  0  0  0  0  0  0  0  0  0
   31.3830   38.2200   27.5610 C   0  0  0  0  0  0  0  0  0  0  0  0
   31.8610   38.7270   26.1930 C   0  0  0  0  0  0  0  0  0  0  0  0
   36.3570   36.1010   15.8570 C   0  0  0  0  0  0  0  0  0  0  0  0
   32.3060   37.2640   28.1310 O   0  0  0  0  0  0  0  0  0  0  0  0
   34.5040   35.0430   21.3840 C   0  0  0  0  0  0  0  0  0  0  0  0
   35.5950   35.6440   16.9350 C   0  0  0  0  0  0  0  0  0  0  0  0
   34.0430   39.1640   23.8790 C   0  0  0  0  0  0  0  0  0  0  0  0
   33.2830   39.3080   26.3320 C   0  0  0  0  0  0  0  0  0  0  0  0
   34.7200   37.9080   21.5150 C   0  0  0  0  0  0  0  0  0  0  0  0
   35.1310   37.2250   20.3190 C   0  0  0  0  0  0  0  0  0  0  0  0
   37.6730   36.5090   16.1000 C   0  0  0  0  0  0  0  0  0  0  0  0
   38.2760   36.4500   17.3610 C   0  0  0  0  0  0  0  0  0  0  0  0
   37.5080   36.0100   18.4410 C   0  0  0  0  0  0  0  0  0  0  0  0
   34.2920   37.1690   22.6570 C   0  0  0  0  0  0  0  0  0  0  0  0
   34.7230   39.3240   21.6330 C   0  0  0  0  0  0  0  0  0  0  0  0
   35.0550   35.8740   20.2810 C   0  0  0  0  0  0  0  0  0  0  0  0
   36.1830   35.6160   18.2060 C   0  0  0  0  0  0  0  0  0  0  0  0
   33.7590   35.0110   23.7940 C   0  0  0  0  0  0  0  0  0  0  0  0
   34.5530   35.3500   16.7840 H   0  0  0  0  0  0  0  0  0  0  0  0
   38.3690   37.0250   15.0860 F   0  0  0  0  0  0  0  0  0  0  0  0
   35.4070   35.0360   19.2290 O   0  0  0  0  0  0  0  0  0  0  0  0
   34.3980   39.9610   22.7660 N   0  0  0  0  0  0  0  0  0  0  0  0
   34.3020   33.8490   21.3330 O   0  0  0  0  0  0  0  0  0  0  0  0
   34.1960   35.7690   22.5880 N   0  0  0  0  0  0  0  0  0  0  0  0
   33.9550   37.7880   23.8370 N   0  0  0  0  0  0  0  0  0  0  0  0
   33.8110   39.8520   25.0460 N   0  0  0  0  0  0  0  0  0  0  0  0
   35.2340   38.7290   27.1390 H   0  0  0  0  0  0  0  0  0  0  0  0
   34.3650   37.3990   26.2690 H   0  0  0  0  0  0  0  0  0  0  0  0
   34.2000   36.8880   28.6680 H   0  0  0  0  0  0  0  0  0  0  0  0
   33.6320   38.5990   29.0470 H   0  0  0  0  0  0  0  0  0  0  0  0
   31.2530   39.0620   28.2780 H   0  0  0  0  0  0  0  0  0  0  0  0
   30.4500   37.6190   27.4660 H   0  0  0  0  0  0  0  0  0  0  0  0
   31.8620   37.8810   25.4630 H   0  0  0  0  0  0  0  0  0  0  0  0
   31.1630   39.5130   25.8200 H   0  0  0  0  0  0  0  0  0  0  0  0
   35.9170   36.1620   14.8600 H   0  0  0  0  0  0  0  0  0  0  0  0
   33.2390   40.2130   27.0120 H   0  0  0  0  0  0  0  0  0  0  0  0
   35.5020   37.8240   19.4840 H   0  0  0  0  0  0  0  0  0  0  0  0
   39.3100   36.7730   17.5060 H   0  0  0  0  0  0  0  0  0  0  0  0
   37.9300   36.0040   19.4470 H   0  0  0  0  0  0  0  0  0  0  0  0
   34.9920   39.9470   20.7640 H   0  0  0  0  0  0  0  0  0  0  0  0
   34.4610   35.2160   24.6470 H   0  0  0  0  0  0  0  0  0  0  0  0
   32.7260   35.3320   24.0950 H   0  0  0  0  0  0  0  0  0  0  0  0
   33.7560   33.9100   23.5800 H   0  0  0  0  0  0  0  0  0  0  0  0
   33.8260   40.8920   25.0180 H   0  0  0  0  0  0  0  0  0  0  0  0
  1  2  1  0  0  0  0
  1 10  1  0  0  0  0
  1 29  1  0  0  0  0
  1 30  1  0  0  0  0
  2  6  1  0  0  0  0
  2 31  1  0  0  0  0
  2 32  1  0  0  0  0
  3  4  1  0  0  0  0
  3  6  1  0  0  0  0
  3 33  1  0  0  0  0
  3 34  1  0  0  0  0
  4 10  1  0  0  0  0
  4 35  1  0  0  0  0
  4 36  1  0  0  0  0
  5  8  2  0  0  0  0
  5 13  1  0  0  0  0
  5 37  1  0  0  0  0
  7 18  1  0  0  0  0
  7 25  2  0  0  0  0
  7 26  1  0  0  0  0
  8 19  1  0  0  0  0
  8 21  1  0  0  0  0
  9 24  2  0  0  0  0
  9 27  1  0  0  0  0
  9 28  1  0  0  0  0
 10 28  1  0  0  0  0
 10 38  1  0  0  0  0
 11 12  1  0  0  0  0
 11 16  1  0  0  0  0
 11 17  2  0  0  0  0
 12 18  2  0  0  0  0
 12 39  1  0  0  0  0
 13 14  2  0  0  0  0
 13 22  1  0  0  0  0
 14 15  1  0  0  0  0
 14 40  1  0  0  0  0
 15 19  2  0  0  0  0
 15 41  1  0  0  0  0
 16 26  1  0  0  0  0
 16 27  2  0  0  0  0
 17 24  1  0  0  0  0
 17 42  1  0  0  0  0
 18 23  1  0  0  0  0
 19 23  1  0  0  0  0
 20 26  1  0  0  0  0
 20 43  1  0  0  0  0
 20 44  1  0  0  0  0
 20 45  1  0  0  0  0
 28 46  1  0  0  0  0
M  END
$$$$
