ejm_44
 OpenBabel02232411173D
Structure written by MMmdl.
 41 42  0  0  0  0  0  0  0  0999 V2000
   -1.6020   21.4770  -27.6300 C   0  0  0  0  0  0  0  0  0  0  0  0
   -1.0770   22.5470  -28.3610 C   0  0  0  0  0  0  0  0  0  0  0  0
   -1.8720   23.1690  -29.3250 C   0  0  0  0  0  0  0  0  0  0  0  0
   -3.1830   22.7510  -29.5900 C   0  0  0  0  0  0  0  0  0  0  0  0
   -3.6790   21.6680  -28.8480 C   0  0  0  0  0  0  0  0  0  0  0  0
   -2.9070   21.0380  -27.8690 C   0  0  0  0  0  0  0  0  0  0  0  0
   -5.2640   21.0930  -29.1530 Cl  0  0  0  0  0  0  0  0  0  0  0  0
   -4.0450   23.3770  -30.6490 C   0  0  0  0  0  0  0  0  0  0  0  0
   -4.5150   22.7440  -31.5690 O   0  0  0  0  0  0  0  0  0  0  0  0
   -4.2710   24.7540  -30.4390 N   0  0  0  0  0  0  0  0  0  0  0  0
   -5.0320   25.6320  -31.2620 C   0  0  0  0  0  0  0  0  0  0  0  0
   -5.7720   25.2080  -32.3760 C   0  0  0  0  0  0  0  0  0  0  0  0
   -6.5070   26.1680  -33.0880 C   0  0  0  0  0  0  0  0  0  0  0  0
   -6.5330   27.4870  -32.7700 N   0  0  0  0  0  0  0  0  0  0  0  0
   -5.7830   27.8960  -31.6810 C   0  0  0  0  0  0  0  0  0  0  0  0
   -5.0320   26.9970  -30.9070 C   0  0  0  0  0  0  0  0  0  0  0  0
   -5.8080   29.3000  -31.4360 N   0  0  0  0  0  0  0  0  0  0  0  0
   -5.1000   29.9580  -30.3920 C   0  0  0  0  0  0  0  0  0  0  0  0
   -4.6250   29.3030  -29.4820 O   0  0  0  0  0  0  0  0  0  0  0  0
   -4.9690   31.5050  -30.4460 C   0  0  0  0  0  0  0  0  0  0  0  0
   -1.1950   24.4890  -30.1860 Cl  0  0  0  0  0  0  0  0  0  0  0  0
   -4.9880   32.0520  -31.8790 C   0  0  0  0  0  0  0  0  0  0  0  0
   -0.9870   20.9860  -26.8670 H   0  0  0  0  0  0  0  0  0  0  0  0
   -0.0580   22.8900  -28.1600 H   0  0  0  0  0  0  0  0  0  0  0  0
   -3.3080   20.2150  -27.2760 H   0  0  0  0  0  0  0  0  0  0  0  0
   -3.8070   25.1920  -29.6210 H   0  0  0  0  0  0  0  0  0  0  0  0
   -5.7990   24.1620  -32.6910 H   0  0  0  0  0  0  0  0  0  0  0  0
   -7.1070   25.8630  -33.9620 H   0  0  0  0  0  0  0  0  0  0  0  0
   -4.4430   27.3470  -30.0510 H   0  0  0  0  0  0  0  0  0  0  0  0
   -6.3880   29.8570  -32.0830 H   0  0  0  0  0  0  0  0  0  0  0  0
   -3.6210   31.8470  -29.7860 C   0  0  0  0  0  0  0  0  0  0  0  0
   -6.1370   32.1000  -29.6470 C   0  0  0  0  0  0  0  0  0  0  0  0
   -3.5030   32.9550  -29.7210 H   0  0  0  0  0  0  0  0  0  0  0  0
   -3.5620   31.4340  -28.7530 H   0  0  0  0  0  0  0  0  0  0  0  0
   -2.7750   31.4400  -30.3840 H   0  0  0  0  0  0  0  0  0  0  0  0
   -4.6260   33.1100  -31.8680 H   0  0  0  0  0  0  0  0  0  0  0  0
   -4.3260   31.4630  -32.5430 H   0  0  0  0  0  0  0  0  0  0  0  0
   -6.0270   32.0770  -32.2800 H   0  0  0  0  0  0  0  0  0  0  0  0
   -6.0760   33.2160  -29.6780 H   0  0  0  0  0  0  0  0  0  0  0  0
   -7.1060   31.8070  -30.1040 H   0  0  0  0  0  0  0  0  0  0  0  0
   -6.1030   31.7930  -28.5820 H   0  0  0  0  0  0  0  0  0  0  0  0
  1  2  2  0  0  0  0
  1  6  1  0  0  0  0
  1 23  1  0  0  0  0
  2  3  1  0  0  0  0
  2 24  1  0  0  0  0
  3  4  2  0  0  0  0
  3 21  1  0  0  0  0
  4  5  1  0  0  0  0
  4  8  1  0  0  0  0
  5  6  2  0  0  0  0
  5  7  1  0  0  0  0
  6 25  1  0  0  0  0
  8  9  2  0  0  0  0
  8 10  1  0  0  0  0
 10 11  1  0  0  0  0
 10 26  1  0  0  0  0
 11 12  2  0  0  0  0
 11 16  1  0  0  0  0
 12 13  1  0  0  0  0
 12 27  1  0  0  0  0
 13 14  2  0  0  0  0
 13 28  1  0  0  0  0
 14 15  1  0  0  0  0
 15 16  2  0  0  0  0
 15 17  1  0  0  0  0
 16 29  1  0  0  0  0
 17 18  1  0  0  0  0
 17 30  1  0  0  0  0
 18 19  2  0  0  0  0
 18 20  1  0  0  0  0
 20 22  1  0  0  0  0
 20 31  1  0  0  0  0
 20 32  1  0  0  0  0
 22 36  1  0  0  0  0
 22 37  1  0  0  0  0
 22 38  1  0  0  0  0
 31 33  1  0  0  0  0
 31 34  1  0  0  0  0
 31 35  1  0  0  0  0
 32 39  1  0  0  0  0
 32 40  1  0  0  0  0
 32 41  1  0  0  0  0
M  END
$$$$
