18634-1
 OpenBabel02232411163D
Structure written by MMmdl.
 46 47  0  0  0  0  0  0  0  0999 V2000
   23.2250   10.7850   29.0740 C   0  0  0  0  0  0  0  0  0  0  0  0
   23.4830   11.0090   30.5490 C   0  0  0  0  0  0  0  0  0  0  0  0
   22.2120   11.1140   31.2940 O   0  0  0  0  0  0  0  0  0  0  0  0
   21.5440    9.9850   31.6250 C   0  0  0  0  0  0  0  0  0  0  0  0
   22.0020    8.7900   31.1910 N   0  0  0  0  0  0  0  0  0  0  0  0
   21.2560    7.6620   31.5020 C   0  0  0  0  0  0  0  0  0  0  0  0
   20.0980    7.7180   32.2720 C   0  0  0  0  0  0  0  0  0  0  0  0
   19.6340    8.9760   32.7390 C   0  0  0  0  0  0  0  0  0  0  0  0
   18.4850    9.0380   33.4860 N   0  0  0  0  0  0  0  0  0  0  0  0
   20.3630   10.1640   32.4050 C   0  0  0  0  0  0  0  0  0  0  0  0
   19.9690   11.4680   32.7680 C   0  0  0  0  0  0  0  0  0  0  0  0
   19.6940   12.5650   33.0260 N   0  0  0  0  0  0  0  0  0  0  0  0
   21.8190    6.5030   30.9300 N   0  0  0  0  0  0  0  0  0  0  0  0
   21.2490    5.2090   30.8880 C   0  0  0  0  0  0  0  0  0  0  0  0
   20.1800    4.9490   31.3960 O   0  0  0  0  0  0  0  0  0  0  0  0
   22.0780    4.2150   30.0850 C   0  0  0  0  0  0  0  0  0  0  0  0
   23.4300    3.9590   30.6850 C   0  0  0  0  0  0  0  0  0  0  0  0
   24.5300    4.8160   30.3880 C   0  0  0  0  0  0  0  0  0  0  0  0
   24.1970    5.8470   29.5140 O   0  0  0  0  0  0  0  0  0  0  0  0
   25.1540    6.9320   29.3690 C   0  0  0  0  0  0  0  0  0  0  0  0
   25.7950    4.5950   30.9200 C   0  0  0  0  0  0  0  0  0  0  0  0
   26.0040    3.5110   31.7850 C   0  0  0  0  0  0  0  0  0  0  0  0
   24.9330    2.6690   32.0820 C   0  0  0  0  0  0  0  0  0  0  0  0
   23.6470    2.8750   31.5240 C   0  0  0  0  0  0  0  0  0  0  0  0
   24.9690    1.5710   32.9170 O   0  0  0  0  0  0  0  0  0  0  0  0
   26.2370    1.2460   33.5420 C   0  0  0  0  0  0  0  0  0  0  0  0
   22.7880    9.7760   28.8880 H   0  0  0  0  0  0  0  0  0  0  0  0
   22.5360   11.5550   28.6610 H   0  0  0  0  0  0  0  0  0  0  0  0
   24.1940   10.8520   28.5190 H   0  0  0  0  0  0  0  0  0  0  0  0
   23.8960   12.0260   30.7540 H   0  0  0  0  0  0  0  0  0  0  0  0
   24.1110   10.2030   30.9930 H   0  0  0  0  0  0  0  0  0  0  0  0
   19.5310    6.8150   32.5070 H   0  0  0  0  0  0  0  0  0  0  0  0
   18.1040    9.9300   33.8010 H   0  0  0  0  0  0  0  0  0  0  0  0
   17.9850    8.1750   33.7710 H   0  0  0  0  0  0  0  0  0  0  0  0
   22.7360    6.6540   30.4360 H   0  0  0  0  0  0  0  0  0  0  0  0
   21.5090    3.2520   30.0120 H   0  0  0  0  0  0  0  0  0  0  0  0
   22.2110    4.6310   29.0480 H   0  0  0  0  0  0  0  0  0  0  0  0
   26.0450    6.5670   28.8150 H   0  0  0  0  0  0  0  0  0  0  0  0
   24.5710    7.6660   28.7680 H   0  0  0  0  0  0  0  0  0  0  0  0
   25.4230    7.3510   30.3630 H   0  0  0  0  0  0  0  0  0  0  0  0
   26.6420    5.2420   30.6800 H   0  0  0  0  0  0  0  0  0  0  0  0
   27.0030    3.3570   32.1970 H   0  0  0  0  0  0  0  0  0  0  0  0
   22.8490    2.1690   31.7640 H   0  0  0  0  0  0  0  0  0  0  0  0
   26.9990    1.0090   32.7680 H   0  0  0  0  0  0  0  0  0  0  0  0
   26.5650    2.0780   34.2020 H   0  0  0  0  0  0  0  0  0  0  0  0
   25.9740    0.3390   34.1350 H   0  0  0  0  0  0  0  0  0  0  0  0
  1  2  1  0  0  0  0
  1 27  1  0  0  0  0
  1 28  1  0  0  0  0
  1 29  1  0  0  0  0
  2  3  1  0  0  0  0
  2 30  1  0  0  0  0
  2 31  1  0  0  0  0
  3  4  1  0  0  0  0
  4 10  2  0  0  0  0
  4  5  1  0  0  0  0
  5  6  2  0  0  0  0
  6  7  1  0  0  0  0
  6 13  1  0  0  0  0
  7  8  2  0  0  0  0
  7 32  1  0  0  0  0
  8  9  1  0  0  0  0
  8 10  1  0  0  0  0
  9 33  1  0  0  0  0
  9 34  1  0  0  0  0
 10 11  1  0  0  0  0
 11 12  3  0  0  0  0
 13 14  1  0  0  0  0
 13 35  1  0  0  0  0
 14 15  2  0  0  0  0
 14 16  1  0  0  0  0
 16 17  1  0  0  0  0
 16 36  1  0  0  0  0
 16 37  1  0  0  0  0
 17 24  2  0  0  0  0
 17 18  1  0  0  0  0
 18 19  1  0  0  0  0
 18 21  2  0  0  0  0
 19 20  1  0  0  0  0
 20 38  1  0  0  0  0
 20 39  1  0  0  0  0
 20 40  1  0  0  0  0
 21 22  1  0  0  0  0
 21 41  1  0  0  0  0
 22 23  2  0  0  0  0
 22 42  1  0  0  0  0
 23 24  1  0  0  0  0
 23 25  1  0  0  0  0
 24 43  1  0  0  0  0
 25 26  1  0  0  0  0
 26 44  1  0  0  0  0
 26 45  1  0  0  0  0
 26 46  1  0  0  0  0
M  END
$$$$
