CAT-17g
 OpenBabel02232411143D
Structure written by MMmdl.
 42 45  0  0  1  0  0  0  0  0999 V2000
   11.6290   -2.3500    1.2500 C   0  0  0  0  0  0  0  0  0  0  0  0
   12.9800   -2.3220    0.6510 N   0  0  0  0  0  0  0  0  0  0  0  0
   14.1640   -2.3310    1.3810 C   0  0  0  0  0  0  0  0  0  0  0  0
   14.3030   -2.4420    2.7330 N   0  0  0  0  0  0  0  0  0  0  0  0
   15.2620   -2.2660    0.5110 N   0  3  0  0  0  0  0  0  0  0  0  0
   14.8200   -2.5940   -0.8960 C   0  0  1  0  0  0  0  0  0  0  0  0
   15.4360   -1.5930   -1.8480 C   0  0  0  0  0  0  0  0  0  0  0  0
   16.3450   -1.9980   -2.8320 C   0  0  0  0  0  0  0  0  0  0  0  0
   16.8390   -1.0580   -3.7430 C   0  0  0  0  0  0  0  0  0  0  0  0
   16.4490    0.2800   -3.6640 C   0  0  0  0  0  0  0  0  0  0  0  0
   15.5850    0.7050   -2.6390 C   0  0  0  0  0  0  0  0  0  0  0  0
   15.2120    2.1270   -2.5010 C   0  0  0  0  0  0  0  0  0  0  0  0
   15.2590    2.7530   -1.2350 C   0  0  0  0  0  0  0  0  0  0  0  0
   14.8620    4.0350   -1.0290 N   0  0  0  0  0  0  0  0  0  0  0  0
   14.4140    4.7540   -2.0850 C   0  0  0  0  0  0  0  0  0  0  0  0
   14.4050    4.2000   -3.3820 C   0  0  0  0  0  0  0  0  0  0  0  0
   14.0110    4.9530   -4.4040 F   0  0  0  0  0  0  0  0  0  0  0  0
   14.7930    2.8790   -3.6100 C   0  0  0  0  0  0  0  0  0  0  0  0
   15.0740   -0.2410   -1.7380 C   0  0  0  0  0  0  0  0  0  0  0  0
   15.0240   -4.0580   -1.2590 C   0  0  0  0  0  0  0  0  0  0  0  0
   16.2270   -4.8310   -0.7470 C   0  0  0  0  0  0  0  0  0  0  0  0
   14.8500   -5.1570   -0.2160 C   0  0  0  0  0  0  0  0  0  0  0  0
   13.2690   -2.4050   -0.7990 C   0  0  0  0  0  0  0  0  0  0  0  0
   12.4110   -2.3410   -1.6170 O   0  0  0  0  0  0  0  0  0  0  0  0
   11.6790   -2.6160    2.3390 H   0  0  0  0  0  0  0  0  0  0  0  0
   11.1520   -1.3400    1.1340 H   0  0  0  0  0  0  0  0  0  0  0  0
   11.0110   -3.1280    0.7250 H   0  0  0  0  0  0  0  0  0  0  0  0
   13.5820   -2.0620    3.3940 H   0  0  0  0  0  0  0  0  0  0  0  0
   16.1900   -2.6190    0.8740 H   0  0  0  0  0  0  0  0  0  0  0  0
   16.6710   -3.0380   -2.8900 H   0  0  0  0  0  0  0  0  0  0  0  0
   17.5390   -1.3750   -4.5210 H   0  0  0  0  0  0  0  0  0  0  0  0
   16.8220    0.9930   -4.4030 H   0  0  0  0  0  0  0  0  0  0  0  0
   15.6230    2.2010   -0.3570 H   0  0  0  0  0  0  0  0  0  0  0  0
   14.0450    5.7720   -1.8800 H   0  0  0  0  0  0  0  0  0  0  0  0
   14.7620    2.4320   -4.6110 H   0  0  0  0  0  0  0  0  0  0  0  0
   14.3960    0.0700   -0.9430 H   0  0  0  0  0  0  0  0  0  0  0  0
   14.6780   -4.2760   -2.2860 H   0  0  0  0  0  0  0  0  0  0  0  0
   16.7390   -5.5130   -1.4240 H   0  0  0  0  0  0  0  0  0  0  0  0
   16.9460   -4.3290   -0.0960 H   0  0  0  0  0  0  0  0  0  0  0  0
   14.6090   -4.8900    0.8200 H   0  0  0  0  0  0  0  0  0  0  0  0
   14.3540   -6.0880   -0.5240 H   0  0  0  0  0  0  0  0  0  0  0  0
   15.2800   -2.3820    3.1390 H   0  0  0  0  0  0  0  0  0  0  0  0
  1  2  1  0  0  0  0
  1 25  1  0  0  0  0
  1 26  1  0  0  0  0
  1 27  1  0  0  0  0
  2  3  1  0  0  0  0
  2 23  1  0  0  0  0
  3  4  1  0  0  0  0
  3  5  2  0  0  0  0
  4 28  1  0  0  0  0
  4 42  1  0  0  0  0
  5  6  1  0  0  0  0
  5 29  1  0  0  0  0
  6  7  1  6  0  0  0
  6 20  1  0  0  0  0
  6 23  1  0  0  0  0
  7  8  2  0  0  0  0
  7 19  1  0  0  0  0
  8  9  1  0  0  0  0
  8 30  1  0  0  0  0
  9 10  2  0  0  0  0
  9 31  1  0  0  0  0
 10 11  1  0  0  0  0
 10 32  1  0  0  0  0
 11 12  1  0  0  0  0
 11 19  2  0  0  0  0
 12 13  2  0  0  0  0
 12 18  1  0  0  0  0
 13 14  1  0  0  0  0
 13 33  1  0  0  0  0
 14 15  2  0  0  0  0
 15 16  1  0  0  0  0
 15 34  1  0  0  0  0
 16 18  2  0  0  0  0
 16 17  1  0  0  0  0
 18 35  1  0  0  0  0
 19 36  1  0  0  0  0
 20 21  1  0  0  0  0
 20 22  1  0  0  0  0
 20 37  1  0  0  0  0
 21 22  1  0  0  0  0
 21 38  1  0  0  0  0
 21 39  1  0  0  0  0
 22 40  1  0  0  0  0
 22 41  1  0  0  0  0
 23 24  2  0  0  0  0
M  CHG  1   5   1
M  END
$$$$
