p38a_3flw
 OpenBabel02232411163D
Structure written by MMmdl.
 49 51  0  0  0  0  0  0  0  0999 V2000
   38.2550   36.5160   17.1650 C   0  0  0  0  0  0  0  0  0  0  0  0
   37.6240   36.6890   15.9250 C   0  0  0  0  0  0  0  0  0  0  0  0
   32.1050   38.8020   25.8060 C   0  0  0  0  0  0  0  0  0  0  0  0
   31.3400   39.6820   24.8120 C   0  0  0  0  0  0  0  0  0  0  0  0
   34.3590   38.3990   26.9600 C   0  0  0  0  0  0  0  0  0  0  0  0
   34.2460   35.0900   23.7680 C   0  0  0  0  0  0  0  0  0  0  0  0
   37.9720   35.9130   19.4210 F   0  0  0  0  0  0  0  0  0  0  0  0
   37.4540   36.0610   18.2090 C   0  0  0  0  0  0  0  0  0  0  0  0
   38.3380   37.1890   14.9210 F   0  0  0  0  0  0  0  0  0  0  0  0
   36.2760   36.4020   15.7010 C   0  0  0  0  0  0  0  0  0  0  0  0
   35.4950   35.9340   16.7640 C   0  0  0  0  0  0  0  0  0  0  0  0
   36.0890   35.7570   18.0160 C   0  0  0  0  0  0  0  0  0  0  0  0
   35.3380   35.1530   19.0340 O   0  0  0  0  0  0  0  0  0  0  0  0
   35.0400   35.9780   20.1180 C   0  0  0  0  0  0  0  0  0  0  0  0
   35.0680   37.3300   20.1410 C   0  0  0  0  0  0  0  0  0  0  0  0
   34.7850   38.0050   21.3770 C   0  0  0  0  0  0  0  0  0  0  0  0
   34.7530   39.4200   21.4910 C   0  0  0  0  0  0  0  0  0  0  0  0
   34.5420   40.0480   22.6570 N   0  0  0  0  0  0  0  0  0  0  0  0
   34.6410   35.1320   21.2740 C   0  0  0  0  0  0  0  0  0  0  0  0
   34.4450   33.9370   21.2410 O   0  0  0  0  0  0  0  0  0  0  0  0
   34.4810   35.8530   22.5110 N   0  0  0  0  0  0  0  0  0  0  0  0
   34.5410   37.2550   22.5650 C   0  0  0  0  0  0  0  0  0  0  0  0
   34.3370   37.8690   23.7780 N   0  0  0  0  0  0  0  0  0  0  0  0
   34.3580   39.2440   23.8000 C   0  0  0  0  0  0  0  0  0  0  0  0
   34.2340   39.9270   25.0020 N   0  0  0  0  0  0  0  0  0  0  0  0
   33.4760   39.3960   26.1860 C   0  0  0  0  0  0  0  0  0  0  0  0
   33.8850   38.1770   28.4000 C   0  0  0  0  0  0  0  0  0  0  0  0
   32.6820   37.3890   28.4810 O   0  0  0  0  0  0  0  0  0  0  0  0
   30.0160   39.1450   24.6320 O   0  0  0  0  0  0  0  0  0  0  0  0
   39.3100   36.7650   17.3130 H   0  0  0  0  0  0  0  0  0  0  0  0
   31.5110   38.6880   26.7470 H   0  0  0  0  0  0  0  0  0  0  0  0
   32.2390   37.7810   25.3740 H   0  0  0  0  0  0  0  0  0  0  0  0
   31.2830   40.7320   25.1690 H   0  0  0  0  0  0  0  0  0  0  0  0
   31.7760   39.6190   23.7910 H   0  0  0  0  0  0  0  0  0  0  0  0
   34.4100   37.4240   26.4170 H   0  0  0  0  0  0  0  0  0  0  0  0
   35.4020   38.8130   27.0010 H   0  0  0  0  0  0  0  0  0  0  0  0
   35.0290   35.3560   24.5300 H   0  0  0  0  0  0  0  0  0  0  0  0
   33.2400   35.3500   24.1930 H   0  0  0  0  0  0  0  0  0  0  0  0
   34.2900   33.9880   23.5680 H   0  0  0  0  0  0  0  0  0  0  0  0
   35.8190   36.5550   14.7210 H   0  0  0  0  0  0  0  0  0  0  0  0
   34.4310   35.7270   16.6080 H   0  0  0  0  0  0  0  0  0  0  0  0
   35.3110   37.9350   19.2650 H   0  0  0  0  0  0  0  0  0  0  0  0
   34.8840   40.0480   20.5960 H   0  0  0  0  0  0  0  0  0  0  0  0
   34.1610   40.9670   24.9420 H   0  0  0  0  0  0  0  0  0  0  0  0
   33.3110   40.3070   26.8370 H   0  0  0  0  0  0  0  0  0  0  0  0
   34.6830   37.6560   28.9840 H   0  0  0  0  0  0  0  0  0  0  0  0
   33.5910   39.1320   28.8960 H   0  0  0  0  0  0  0  0  0  0  0  0
   32.8070   36.5570   27.9600 H   0  0  0  0  0  0  0  0  0  0  0  0
   29.3660   39.7770   25.0400 H   0  0  0  0  0  0  0  0  0  0  0  0
  1  2  2  0  0  0  0
  1  8  1  0  0  0  0
  1 30  1  0  0  0  0
  2  9  1  0  0  0  0
  2 10  1  0  0  0  0
  3  4  1  0  0  0  0
  3 26  1  0  0  0  0
  3 31  1  0  0  0  0
  3 32  1  0  0  0  0
  4 29  1  0  0  0  0
  4 33  1  0  0  0  0
  4 34  1  0  0  0  0
  5 26  1  0  0  0  0
  5 27  1  0  0  0  0
  5 35  1  0  0  0  0
  5 36  1  0  0  0  0
  6 21  1  0  0  0  0
  6 37  1  0  0  0  0
  6 38  1  0  0  0  0
  6 39  1  0  0  0  0
  7  8  1  0  0  0  0
  8 12  2  0  0  0  0
 10 11  2  0  0  0  0
 10 40  1  0  0  0  0
 11 12  1  0  0  0  0
 11 41  1  0  0  0  0
 12 13  1  0  0  0  0
 13 14  1  0  0  0  0
 14 15  2  0  0  0  0
 14 19  1  0  0  0  0
 15 16  1  0  0  0  0
 15 42  1  0  0  0  0
 16 17  2  0  0  0  0
 16 22  1  0  0  0  0
 17 18  1  0  0  0  0
 17 43  1  0  0  0  0
 18 24  2  0  0  0  0
 19 20  2  0  0  0  0
 19 21  1  0  0  0  0
 21 22  1  0  0  0  0
 22 23  2  0  0  0  0
 23 24  1  0  0  0  0
 24 25  1  0  0  0  0
 25 26  1  0  0  0  0
 25 44  1  0  0  0  0
 26 45  1  0  0  0  0
 27 28  1  0  0  0  0
 27 46  1  0  0  0  0
 27 47  1  0  0  0  0
 28 48  1  0  0  0  0
 29 49  1  0  0  0  0
M  END
$$$$
