p38a_2y
 OpenBabel02232411163D
Structure written by MMmdl.
 45 47  0  0  0  0  0  0  0  0999 V2000
   36.3610   36.0090   15.8580 C   0  0  0  0  0  0  0  0  0  0  0  0
   34.3540   35.0210   21.2610 C   0  0  0  0  0  0  0  0  0  0  0  0
   35.7230   35.5310   16.9990 C   0  0  0  0  0  0  0  0  0  0  0  0
   33.5560   39.1690   23.6290 C   0  0  0  0  0  0  0  0  0  0  0  0
   32.3030   39.2180   25.8100 C   0  0  0  0  0  0  0  0  0  0  0  0
   34.6340   37.8820   21.4420 C   0  0  0  0  0  0  0  0  0  0  0  0
   35.2300   37.1840   20.3340 C   0  0  0  0  0  0  0  0  0  0  0  0
   37.6510   36.5260   16.0340 C   0  0  0  0  0  0  0  0  0  0  0  0
   38.3110   36.5460   17.2660 C   0  0  0  0  0  0  0  0  0  0  0  0
   37.6350   36.0920   18.4040 C   0  0  0  0  0  0  0  0  0  0  0  0
   33.9310   37.1620   22.4520 C   0  0  0  0  0  0  0  0  0  0  0  0
   34.7350   39.2890   21.6050 C   0  0  0  0  0  0  0  0  0  0  0  0
   35.1140   35.8380   20.2750 C   0  0  0  0  0  0  0  0  0  0  0  0
   36.3410   35.5840   18.2660 C   0  0  0  0  0  0  0  0  0  0  0  0
   33.0120   35.0410   23.3970 C   0  0  0  0  0  0  0  0  0  0  0  0
   34.5130   34.9960   16.9190 F   0  0  0  0  0  0  0  0  0  0  0  0
   35.6420   34.9750   19.3170 O   0  0  0  0  0  0  0  0  0  0  0  0
   34.2370   39.9390   22.6670 N   0  0  0  0  0  0  0  0  0  0  0  0
   34.1880   33.8230   21.1980 O   0  0  0  0  0  0  0  0  0  0  0  0
   33.7890   35.7690   22.3560 N   0  0  0  0  0  0  0  0  0  0  0  0
   33.3950   37.7990   23.5470 N   0  0  0  0  0  0  0  0  0  0  0  0
   32.9660   39.8690   24.6610 N   0  0  0  0  0  0  0  0  0  0  0  0
   35.8750   36.0050   14.8790 H   0  0  0  0  0  0  0  0  0  0  0  0
   31.6670   38.3640   25.4510 H   0  0  0  0  0  0  0  0  0  0  0  0
   35.7630   37.7720   19.5830 H   0  0  0  0  0  0  0  0  0  0  0  0
   39.3280   36.9370   17.3490 H   0  0  0  0  0  0  0  0  0  0  0  0
   38.1160   36.1580   19.3830 H   0  0  0  0  0  0  0  0  0  0  0  0
   35.2450   39.8930   20.8380 H   0  0  0  0  0  0  0  0  0  0  0  0
   33.5750   35.0400   24.3670 H   0  0  0  0  0  0  0  0  0  0  0  0
   32.0170   35.5400   23.5560 H   0  0  0  0  0  0  0  0  0  0  0  0
   32.8350   33.9800   23.0760 H   0  0  0  0  0  0  0  0  0  0  0  0
   33.2900   40.8370   24.8590 H   0  0  0  0  0  0  0  0  0  0  0  0
   38.2620   37.0540   14.9760 F   0  0  0  0  0  0  0  0  0  0  0  0
   33.2690   38.7230   26.9380 C   0  0  0  0  0  0  0  0  0  0  0  0
   31.6170   39.9990   26.2480 H   0  0  0  0  0  0  0  0  0  0  0  0
   32.4250   38.2450   28.1280 C   0  0  0  0  0  0  0  0  0  0  0  0
   34.0450   37.5910   26.4900 O   0  0  0  0  0  0  0  0  0  0  0  0
   34.2880   39.7900   27.3470 C   0  0  0  0  0  0  0  0  0  0  0  0
   33.7170   37.2660   25.6210 H   0  0  0  0  0  0  0  0  0  0  0  0
   33.0680   37.7060   28.8630 H   0  0  0  0  0  0  0  0  0  0  0  0
   31.9530   39.1110   28.6470 H   0  0  0  0  0  0  0  0  0  0  0  0
   31.6210   37.5480   27.8000 H   0  0  0  0  0  0  0  0  0  0  0  0
   34.8220   39.4880   28.2760 H   0  0  0  0  0  0  0  0  0  0  0  0
   35.0440   39.9430   26.5460 H   0  0  0  0  0  0  0  0  0  0  0  0
   33.7740   40.7610   27.5400 H   0  0  0  0  0  0  0  0  0  0  0  0
  1  3  2  0  0  0  0
  1  8  1  0  0  0  0
  1 23  1  0  0  0  0
  2 13  1  0  0  0  0
  2 19  2  0  0  0  0
  2 20  1  0  0  0  0
  3 14  1  0  0  0  0
  3 16  1  0  0  0  0
  4 18  2  0  0  0  0
  4 21  1  0  0  0  0
  4 22  1  0  0  0  0
  5 22  1  0  0  0  0
  5 24  1  0  0  0  0
  5 34  1  0  0  0  0
  5 35  1  0  0  0  0
  6  7  1  0  0  0  0
  6 11  1  0  0  0  0
  6 12  2  0  0  0  0
  7 13  2  0  0  0  0
  7 25  1  0  0  0  0
  8  9  2  0  0  0  0
  8 33  1  0  0  0  0
  9 10  1  0  0  0  0
  9 26  1  0  0  0  0
 10 14  2  0  0  0  0
 10 27  1  0  0  0  0
 11 20  1  0  0  0  0
 11 21  2  0  0  0  0
 12 18  1  0  0  0  0
 12 28  1  0  0  0  0
 13 17  1  0  0  0  0
 14 17  1  0  0  0  0
 15 20  1  0  0  0  0
 15 29  1  0  0  0  0
 15 30  1  0  0  0  0
 15 31  1  0  0  0  0
 22 32  1  0  0  0  0
 34 36  1  0  0  0  0
 34 37  1  0  0  0  0
 34 38  1  0  0  0  0
 36 40  1  0  0  0  0
 36 41  1  0  0  0  0
 36 42  1  0  0  0  0
 37 39  1  0  0  0  0
 38 43  1  0  0  0  0
 38 44  1  0  0  0  0
 38 45  1  0  0  0  0
M  END
$$$$
