p38a_2aa
 OpenBabel02232411163D
Structure written by MMmdl.
 43 45  0  0  0  0  0  0  0  0999 V2000
   36.4130   36.1590   15.6340 C   0  0  0  0  0  0  0  0  0  0  0  0
   34.6480   34.9360   21.1330 C   0  0  0  0  0  0  0  0  0  0  0  0
   35.7710   35.6290   16.7480 C   0  0  0  0  0  0  0  0  0  0  0  0
   34.0750   38.9680   23.7330 C   0  0  0  0  0  0  0  0  0  0  0  0
   33.4370   38.8140   26.1600 C   0  0  0  0  0  0  0  0  0  0  0  0
   34.8090   37.8050   21.3510 C   0  0  0  0  0  0  0  0  0  0  0  0
   35.2670   37.1610   20.1480 C   0  0  0  0  0  0  0  0  0  0  0  0
   37.7020   36.6680   15.8390 C   0  0  0  0  0  0  0  0  0  0  0  0
   38.3550   36.6400   17.0750 C   0  0  0  0  0  0  0  0  0  0  0  0
   37.6720   36.1420   18.1890 C   0  0  0  0  0  0  0  0  0  0  0  0
   34.4110   37.0150   22.4710 C   0  0  0  0  0  0  0  0  0  0  0  0
   34.7590   39.2150   21.5070 C   0  0  0  0  0  0  0  0  0  0  0  0
   35.2240   35.8110   20.0750 C   0  0  0  0  0  0  0  0  0  0  0  0
   36.3790   35.6370   18.0200 C   0  0  0  0  0  0  0  0  0  0  0  0
   33.9610   34.8170   23.5610 C   0  0  0  0  0  0  0  0  0  0  0  0
   34.5640   35.0910   16.6400 F   0  0  0  0  0  0  0  0  0  0  0  0
   35.6630   34.9930   19.0370 O   0  0  0  0  0  0  0  0  0  0  0  0
   34.4060   39.8130   22.6580 N   0  0  0  0  0  0  0  0  0  0  0  0
   34.4290   33.7500   21.0210 O   0  0  0  0  0  0  0  0  0  0  0  0
   34.3500   35.6160   22.3650 N   0  0  0  0  0  0  0  0  0  0  0  0
   34.0690   37.5900   23.6690 N   0  0  0  0  0  0  0  0  0  0  0  0
   33.6860   39.5770   24.9070 N   0  0  0  0  0  0  0  0  0  0  0  0
   35.9280   36.2000   14.6580 H   0  0  0  0  0  0  0  0  0  0  0  0
   34.7180   38.8380   27.0390 C   0  0  0  0  0  0  0  0  0  0  0  0
   35.6520   37.7920   19.3440 H   0  0  0  0  0  0  0  0  0  0  0  0
   39.3690   37.0320   17.1860 H   0  0  0  0  0  0  0  0  0  0  0  0
   38.1430   36.1790   19.1750 H   0  0  0  0  0  0  0  0  0  0  0  0
   35.0130   39.8720   20.6590 H   0  0  0  0  0  0  0  0  0  0  0  0
   34.6910   35.0040   24.3940 H   0  0  0  0  0  0  0  0  0  0  0  0
   32.9370   35.1180   23.9130 H   0  0  0  0  0  0  0  0  0  0  0  0
   33.9570   33.7240   23.3140 H   0  0  0  0  0  0  0  0  0  0  0  0
   33.7510   40.6050   24.9960 H   0  0  0  0  0  0  0  0  0  0  0  0
   38.3160   37.2380   14.8050 F   0  0  0  0  0  0  0  0  0  0  0  0
   32.2180   39.4330   26.8900 C   0  0  0  0  0  0  0  0  0  0  0  0
   32.5560   40.6490   27.5680 O   0  0  0  0  0  0  0  0  0  0  0  0
   32.8000   41.3380   26.8750 H   0  0  0  0  0  0  0  0  0  0  0  0
   31.3870   39.6290   26.1720 H   0  0  0  0  0  0  0  0  0  0  0  0
   31.8950   38.7570   27.7200 H   0  0  0  0  0  0  0  0  0  0  0  0
   34.6090   37.8970   28.1130 O   0  0  0  0  0  0  0  0  0  0  0  0
   35.6170   38.6030   26.4250 H   0  0  0  0  0  0  0  0  0  0  0  0
   34.8180   39.8180   27.5660 H   0  0  0  0  0  0  0  0  0  0  0  0
   34.6150   36.9740   27.7440 H   0  0  0  0  0  0  0  0  0  0  0  0
   33.1730   37.7450   25.9090 H   0  0  0  0  0  0  0  0  0  0  0  0
  1  3  2  0  0  0  0
  1  8  1  0  0  0  0
  1 23  1  0  0  0  0
  2 13  1  0  0  0  0
  2 19  2  0  0  0  0
  2 20  1  0  0  0  0
  3 14  1  0  0  0  0
  3 16  1  0  0  0  0
  4 18  2  0  0  0  0
  4 21  1  0  0  0  0
  4 22  1  0  0  0  0
  5 22  1  0  0  0  0
  5 24  1  0  0  0  0
  5 34  1  0  0  0  0
  5 43  1  0  0  0  0
  6  7  1  0  0  0  0
  6 11  1  0  0  0  0
  6 12  2  0  0  0  0
  7 13  2  0  0  0  0
  7 25  1  0  0  0  0
  8  9  2  0  0  0  0
  8 33  1  0  0  0  0
  9 10  1  0  0  0  0
  9 26  1  0  0  0  0
 10 14  2  0  0  0  0
 10 27  1  0  0  0  0
 11 20  1  0  0  0  0
 11 21  2  0  0  0  0
 12 18  1  0  0  0  0
 12 28  1  0  0  0  0
 13 17  1  0  0  0  0
 14 17  1  0  0  0  0
 15 20  1  0  0  0  0
 15 29  1  0  0  0  0
 15 30  1  0  0  0  0
 15 31  1  0  0  0  0
 22 32  1  0  0  0  0
 24 39  1  0  0  0  0
 24 40  1  0  0  0  0
 24 41  1  0  0  0  0
 34 35  1  0  0  0  0
 34 37  1  0  0  0  0
 34 38  1  0  0  0  0
 35 36  1  0  0  0  0
 39 42  1  0  0  0  0
M  END
$$$$
