CAT-13d
 OpenBabel02232411143D
Structure written by MMmdl.
 43 46  0  0  1  0  0  0  0  0999 V2000
   11.6340   -2.3260    1.2450 C   0  0  0  0  0  0  0  0  0  0  0  0
   12.9820   -2.3250    0.6420 N   0  0  0  0  0  0  0  0  0  0  0  0
   14.1670   -2.3280    1.3710 C   0  0  0  0  0  0  0  0  0  0  0  0
   14.3060   -2.4320    2.7240 N   0  0  0  0  0  0  0  0  0  0  0  0
   15.2640   -2.2720    0.4990 N   0  3  0  0  0  0  0  0  0  0  0  0
   14.8200   -2.6050   -0.9070 C   0  0  1  0  0  0  0  0  0  0  0  0
   15.4270   -1.6030   -1.8650 C   0  0  0  0  0  0  0  0  0  0  0  0
   16.2850   -2.0090   -2.8930 C   0  0  0  0  0  0  0  0  0  0  0  0
   16.7690   -1.0610   -3.8010 C   0  0  0  0  0  0  0  0  0  0  0  0
   16.4270    0.2860   -3.6730 C   0  0  0  0  0  0  0  0  0  0  0  0
   15.6200    0.7120   -2.6040 C   0  0  0  0  0  0  0  0  0  0  0  0
   15.3160    2.1450   -2.3910 C   0  0  0  0  0  0  0  0  0  0  0  0
   15.4660    2.6960   -1.1070 C   0  0  0  0  0  0  0  0  0  0  0  0
   15.1120    4.0250   -0.8590 C   0  0  0  0  0  0  0  0  0  0  0  0
   14.6260    4.8270   -1.8940 C   0  0  0  0  0  0  0  0  0  0  0  0
   14.5380    4.2830   -3.1800 C   0  0  0  0  0  0  0  0  0  0  0  0
   14.0040    5.2880   -4.4680 Cl  0  0  0  0  0  0  0  0  0  0  0  0
   14.8650    2.9520   -3.4470 C   0  0  0  0  0  0  0  0  0  0  0  0
   15.1070   -0.2440   -1.7140 C   0  0  0  0  0  0  0  0  0  0  0  0
   15.0260   -4.0700   -1.2610 C   0  0  0  0  0  0  0  0  0  0  0  0
   16.2300   -4.8370   -0.7420 C   0  0  0  0  0  0  0  0  0  0  0  0
   14.8520   -5.1630   -0.2120 C   0  0  0  0  0  0  0  0  0  0  0  0
   13.2690   -2.4130   -0.8080 C   0  0  0  0  0  0  0  0  0  0  0  0
   12.4100   -2.3500   -1.6260 O   0  0  0  0  0  0  0  0  0  0  0  0
   10.9900   -3.0730    0.7050 H   0  0  0  0  0  0  0  0  0  0  0  0
   11.6800   -2.6200    2.3270 H   0  0  0  0  0  0  0  0  0  0  0  0
   11.1860   -1.3010    1.1550 H   0  0  0  0  0  0  0  0  0  0  0  0
   13.5850   -2.0500    3.3840 H   0  0  0  0  0  0  0  0  0  0  0  0
   16.1920   -2.6210    0.8660 H   0  0  0  0  0  0  0  0  0  0  0  0
   16.5810   -3.0560   -2.9860 H   0  0  0  0  0  0  0  0  0  0  0  0
   17.4290   -1.3790   -4.6140 H   0  0  0  0  0  0  0  0  0  0  0  0
   16.7970    1.0080   -4.4080 H   0  0  0  0  0  0  0  0  0  0  0  0
   15.8530    2.0780   -0.2940 H   0  0  0  0  0  0  0  0  0  0  0  0
   15.2090    4.4260    0.1540 H   0  0  0  0  0  0  0  0  0  0  0  0
   14.3020    5.8510   -1.6930 H   0  0  0  0  0  0  0  0  0  0  0  0
   14.7640    2.5400   -4.4560 H   0  0  0  0  0  0  0  0  0  0  0  0
   14.4640    0.0670   -0.8910 H   0  0  0  0  0  0  0  0  0  0  0  0
   14.6790   -4.2960   -2.2860 H   0  0  0  0  0  0  0  0  0  0  0  0
   16.7460   -5.5210   -1.4130 H   0  0  0  0  0  0  0  0  0  0  0  0
   16.9470   -4.3300   -0.0940 H   0  0  0  0  0  0  0  0  0  0  0  0
   14.6090   -4.8920    0.8230 H   0  0  0  0  0  0  0  0  0  0  0  0
   14.3580   -6.0960   -0.5150 H   0  0  0  0  0  0  0  0  0  0  0  0
   15.2830   -2.3700    3.1300 H   0  0  0  0  0  0  0  0  0  0  0  0
  1  2  1  0  0  0  0
  1 25  1  0  0  0  0
  1 26  1  0  0  0  0
  1 27  1  0  0  0  0
  2  3  1  0  0  0  0
  2 23  1  0  0  0  0
  3  4  1  0  0  0  0
  3  5  2  0  0  0  0
  4 28  1  0  0  0  0
  4 43  1  0  0  0  0
  5  6  1  0  0  0  0
  5 29  1  0  0  0  0
  6  7  1  6  0  0  0
  6 20  1  0  0  0  0
  6 23  1  0  0  0  0
  7  8  2  0  0  0  0
  7 19  1  0  0  0  0
  8  9  1  0  0  0  0
  8 30  1  0  0  0  0
  9 10  2  0  0  0  0
  9 31  1  0  0  0  0
 10 11  1  0  0  0  0
 10 32  1  0  0  0  0
 11 12  1  0  0  0  0
 11 19  2  0  0  0  0
 12 13  2  0  0  0  0
 12 18  1  0  0  0  0
 13 14  1  0  0  0  0
 13 33  1  0  0  0  0
 14 15  2  0  0  0  0
 14 34  1  0  0  0  0
 15 16  1  0  0  0  0
 15 35  1  0  0  0  0
 16 18  2  0  0  0  0
 16 17  1  0  0  0  0
 18 36  1  0  0  0  0
 19 37  1  0  0  0  0
 20 21  1  0  0  0  0
 20 22  1  0  0  0  0
 20 38  1  0  0  0  0
 21 22  1  0  0  0  0
 21 39  1  0  0  0  0
 21 40  1  0  0  0  0
 22 41  1  0  0  0  0
 22 42  1  0  0  0  0
 23 24  2  0  0  0  0
M  CHG  1   5   1
M  END
$$$$
