20
 OpenBabel02232411153D
Structure written by MMmdl.
 49 52  0  0  0  0  0  0  0  0999 V2000
    1.8460   28.7940    6.8970 C   0  0  0  0  0  0  0  0  0  0  0  0
   -1.6170   31.4520    7.9730 C   0  0  0  0  0  0  0  0  0  0  0  0
   -0.2560   25.9380    8.9070 C   0  0  0  0  0  0  0  0  0  0  0  0
   -0.9990   25.2520   10.0610 C   0  0  0  0  0  0  0  0  0  0  0  0
   -0.8000   23.7290    9.8810 C   0  0  0  0  0  0  0  0  0  0  0  0
   -1.3630   22.9360   11.0680 C   0  0  0  0  0  0  0  0  0  0  0  0
   -0.7850   23.4330   12.4020 C   0  0  0  0  0  0  0  0  0  0  0  0
   -1.0460   24.9350   12.5890 C   0  0  0  0  0  0  0  0  0  0  0  0
   -0.4680   25.7470   11.4210 C   0  0  0  0  0  0  0  0  0  0  0  0
    5.3720   25.5110    5.9530 C   0  0  0  0  0  0  0  0  0  0  0  0
    5.1630   24.7690    7.1240 C   0  0  0  0  0  0  0  0  0  0  0  0
    4.2850   25.2450    8.0990 C   0  0  0  0  0  0  0  0  0  0  0  0
    3.5950   26.4460    7.9190 C   0  0  0  0  0  0  0  0  0  0  0  0
    1.0960   27.8560    7.6030 N   0  0  0  0  0  0  0  0  0  0  0  0
   -0.1070   28.2040    8.1230 C   0  0  0  0  0  0  0  0  0  0  0  0
   -0.8200   27.3110    8.8270 O   0  0  0  0  0  0  0  0  0  0  0  0
   -0.6060   29.5210    7.9390 C   0  0  0  0  0  0  0  0  0  0  0  0
   -1.7440   30.1920    8.3970 N   0  0  0  0  0  0  0  0  0  0  0  0
   -0.3970   31.6600    7.2360 N   0  0  0  0  0  0  0  0  0  0  0  0
    0.2480   30.4270    7.1860 C   0  0  0  0  0  0  0  0  0  0  0  0
    1.4480   30.0920    6.6120 N   0  0  0  0  0  0  0  0  0  0  0  0
    3.1010   28.4030    6.4490 N   0  0  0  0  0  0  0  0  0  0  0  0
    3.7690   27.1640    6.7250 C   0  0  0  0  0  0  0  0  0  0  0  0
    4.6830   26.7090    5.7490 C   0  0  0  0  0  0  0  0  0  0  0  0
   -2.3070   32.2710    8.1540 H   0  0  0  0  0  0  0  0  0  0  0  0
    0.8360   25.9950    9.1110 H   0  0  0  0  0  0  0  0  0  0  0  0
   -0.4730   25.4750    7.9230 H   0  0  0  0  0  0  0  0  0  0  0  0
   -2.0900   25.4810   10.0080 H   0  0  0  0  0  0  0  0  0  0  0  0
   -1.3140   23.3990    8.9510 H   0  0  0  0  0  0  0  0  0  0  0  0
    0.2920   23.5050    9.7900 H   0  0  0  0  0  0  0  0  0  0  0  0
   -2.4670   23.0500   11.0950 H   0  0  0  0  0  0  0  0  0  0  0  0
   -1.1160   21.8550   10.9430 H   0  0  0  0  0  0  0  0  0  0  0  0
   -1.2510   22.8680   13.2410 H   0  0  0  0  0  0  0  0  0  0  0  0
    0.3140   23.2480   12.4130 H   0  0  0  0  0  0  0  0  0  0  0  0
   -2.1420   25.1150   12.6770 H   0  0  0  0  0  0  0  0  0  0  0  0
   -0.5620   25.2740   13.5340 H   0  0  0  0  0  0  0  0  0  0  0  0
    0.6440   25.6550   11.4480 H   0  0  0  0  0  0  0  0  0  0  0  0
   -0.7370   26.8200   11.5530 H   0  0  0  0  0  0  0  0  0  0  0  0
    5.6820   23.8230    7.2660 H   0  0  0  0  0  0  0  0  0  0  0  0
    4.1200   24.6680    9.0130 H   0  0  0  0  0  0  0  0  0  0  0  0
    2.9260   26.7970    8.7060 H   0  0  0  0  0  0  0  0  0  0  0  0
   -0.1190   32.5330    6.7650 H   0  0  0  0  0  0  0  0  0  0  0  0
    3.6220   29.0450    5.8070 H   0  0  0  0  0  0  0  0  0  0  0  0
    4.8460   27.2890    4.8390 H   0  0  0  0  0  0  0  0  0  0  0  0
    6.3530   25.0010    4.9210 C   0  0  0  0  0  0  0  0  0  0  0  0
    6.1370   23.9380    4.6490 H   0  0  0  0  0  0  0  0  0  0  0  0
    6.3760   25.6390    4.0060 H   0  0  0  0  0  0  0  0  0  0  0  0
    7.6760   24.9450    5.4910 O   0  0  0  0  0  0  0  0  0  0  0  0
    8.0070   25.9030    5.5650 H   0  0  0  0  0  0  0  0  0  0  0  0
  1 14  2  0  0  0  0
  1 21  1  0  0  0  0
  1 22  1  0  0  0  0
  2 18  2  0  0  0  0
  2 19  1  0  0  0  0
  2 25  1  0  0  0  0
  3  4  1  0  0  0  0
  3 16  1  0  0  0  0
  3 26  1  0  0  0  0
  3 27  1  0  0  0  0
  4  5  1  0  0  0  0
  4  9  1  0  0  0  0
  4 28  1  0  0  0  0
  5  6  1  0  0  0  0
  5 29  1  0  0  0  0
  5 30  1  0  0  0  0
  6  7  1  0  0  0  0
  6 31  1  0  0  0  0
  6 32  1  0  0  0  0
  7  8  1  0  0  0  0
  7 33  1  0  0  0  0
  7 34  1  0  0  0  0
  8  9  1  0  0  0  0
  8 35  1  0  0  0  0
  8 36  1  0  0  0  0
  9 37  1  0  0  0  0
  9 38  1  0  0  0  0
 10 11  2  0  0  0  0
 10 24  1  0  0  0  0
 10 45  1  0  0  0  0
 11 12  1  0  0  0  0
 11 39  1  0  0  0  0
 12 13  2  0  0  0  0
 12 40  1  0  0  0  0
 13 23  1  0  0  0  0
 13 41  1  0  0  0  0
 14 15  1  0  0  0  0
 15 16  1  0  0  0  0
 15 17  2  0  0  0  0
 17 18  1  0  0  0  0
 17 20  1  0  0  0  0
 19 20  1  0  0  0  0
 19 42  1  0  0  0  0
 20 21  2  0  0  0  0
 22 23  1  0  0  0  0
 22 43  1  0  0  0  0
 23 24  2  0  0  0  0
 24 44  1  0  0  0  0
 45 46  1  0  0  0  0
 45 47  1  0  0  0  0
 45 48  1  0  0  0  0
 48 49  1  0  0  0  0
M  END
$$$$
