18658-1
 OpenBabel02232411163D
Structure written by MMmdl.
 47 48  0  0  0  0  0  0  0  0999 V2000
   22.1000   13.0000   28.4780 O   0  0  0  0  0  0  0  0  0  0  0  0
   23.0670   12.7540   29.5110 C   0  0  0  0  0  0  0  0  0  0  0  0
   23.0090   11.3150   30.0420 C   0  0  0  0  0  0  0  0  0  0  0  0
   21.9660   11.3570   31.0830 O   0  0  0  0  0  0  0  0  0  0  0  0
   21.4300   10.1870   31.5100 C   0  0  0  0  0  0  0  0  0  0  0  0
   21.9260    9.0120   31.0580 N   0  0  0  0  0  0  0  0  0  0  0  0
   21.2660    7.8510   31.4450 C   0  0  0  0  0  0  0  0  0  0  0  0
   20.1520    7.8650   32.2800 C   0  0  0  0  0  0  0  0  0  0  0  0
   19.6500    9.1040   32.7580 C   0  0  0  0  0  0  0  0  0  0  0  0
   18.5230    9.1230   33.5410 N   0  0  0  0  0  0  0  0  0  0  0  0
   20.3090   10.3190   32.3810 C   0  0  0  0  0  0  0  0  0  0  0  0
   19.8840   11.6100   32.7580 C   0  0  0  0  0  0  0  0  0  0  0  0
   19.5780   12.6990   33.0160 N   0  0  0  0  0  0  0  0  0  0  0  0
   21.8400    6.6940   30.8750 N   0  0  0  0  0  0  0  0  0  0  0  0
   21.2860    5.3890   30.8560 C   0  0  0  0  0  0  0  0  0  0  0  0
   20.2370    5.1100   31.3960 O   0  0  0  0  0  0  0  0  0  0  0  0
   22.1020    4.4020   30.0320 C   0  0  0  0  0  0  0  0  0  0  0  0
   23.4430    4.1100   30.6390 C   0  0  0  0  0  0  0  0  0  0  0  0
   24.5600    4.9490   30.3550 C   0  0  0  0  0  0  0  0  0  0  0  0
   24.2480    5.9890   29.4850 O   0  0  0  0  0  0  0  0  0  0  0  0
   25.2390    7.0370   29.3170 C   0  0  0  0  0  0  0  0  0  0  0  0
   25.8180    4.7000   30.8920 C   0  0  0  0  0  0  0  0  0  0  0  0
   26.0000    3.6070   31.7530 C   0  0  0  0  0  0  0  0  0  0  0  0
   24.9120    2.7840   32.0380 C   0  0  0  0  0  0  0  0  0  0  0  0
   23.6340    3.0160   31.4710 C   0  0  0  0  0  0  0  0  0  0  0  0
   24.9220    1.6810   32.8670 O   0  0  0  0  0  0  0  0  0  0  0  0
   26.1740    1.3400   33.5150 C   0  0  0  0  0  0  0  0  0  0  0  0
   22.3730   12.4550   27.6640 H   0  0  0  0  0  0  0  0  0  0  0  0
   24.0950   12.9540   29.1130 H   0  0  0  0  0  0  0  0  0  0  0  0
   22.7940   13.4900   30.3050 H   0  0  0  0  0  0  0  0  0  0  0  0
   22.7280   10.5860   29.2480 H   0  0  0  0  0  0  0  0  0  0  0  0
   23.9590   11.0190   30.5460 H   0  0  0  0  0  0  0  0  0  0  0  0
   19.6460    6.9380   32.5600 H   0  0  0  0  0  0  0  0  0  0  0  0
   18.0480    8.2440   33.8200 H   0  0  0  0  0  0  0  0  0  0  0  0
   18.1130   10.0010   33.8580 H   0  0  0  0  0  0  0  0  0  0  0  0
   22.7430    6.8500   30.3610 H   0  0  0  0  0  0  0  0  0  0  0  0
   21.5170    3.4510   29.9320 H   0  0  0  0  0  0  0  0  0  0  0  0
   22.2530    4.8340   29.0040 H   0  0  0  0  0  0  0  0  0  0  0  0
   26.1130    6.6350   28.7610 H   0  0  0  0  0  0  0  0  0  0  0  0
   24.6780    7.7840   28.7110 H   0  0  0  0  0  0  0  0  0  0  0  0
   25.5330    7.4580   30.3030 H   0  0  0  0  0  0  0  0  0  0  0  0
   26.6790    5.3320   30.6610 H   0  0  0  0  0  0  0  0  0  0  0  0
   26.9940    3.4320   32.1700 H   0  0  0  0  0  0  0  0  0  0  0  0
   22.8220    2.3210   31.6980 H   0  0  0  0  0  0  0  0  0  0  0  0
   25.8880    0.4380   34.1050 H   0  0  0  0  0  0  0  0  0  0  0  0
   26.5030    2.1680   34.1790 H   0  0  0  0  0  0  0  0  0  0  0  0
   26.9460    1.0910   32.7540 H   0  0  0  0  0  0  0  0  0  0  0  0
  1  2  1  0  0  0  0
  1 28  1  0  0  0  0
  2  3  1  0  0  0  0
  2 29  1  0  0  0  0
  2 30  1  0  0  0  0
  3  4  1  0  0  0  0
  3 31  1  0  0  0  0
  3 32  1  0  0  0  0
  4  5  1  0  0  0  0
  5 11  2  0  0  0  0
  5  6  1  0  0  0  0
  6  7  2  0  0  0  0
  7  8  1  0  0  0  0
  7 14  1  0  0  0  0
  8  9  2  0  0  0  0
  8 33  1  0  0  0  0
  9 10  1  0  0  0  0
  9 11  1  0  0  0  0
 10 34  1  0  0  0  0
 10 35  1  0  0  0  0
 11 12  1  0  0  0  0
 12 13  3  0  0  0  0
 14 15  1  0  0  0  0
 14 36  1  0  0  0  0
 15 16  2  0  0  0  0
 15 17  1  0  0  0  0
 17 18  1  0  0  0  0
 17 37  1  0  0  0  0
 17 38  1  0  0  0  0
 18 25  2  0  0  0  0
 18 19  1  0  0  0  0
 19 20  1  0  0  0  0
 19 22  2  0  0  0  0
 20 21  1  0  0  0  0
 21 39  1  0  0  0  0
 21 40  1  0  0  0  0
 21 41  1  0  0  0  0
 22 23  1  0  0  0  0
 22 42  1  0  0  0  0
 23 24  2  0  0  0  0
 23 43  1  0  0  0  0
 24 25  1  0  0  0  0
 24 26  1  0  0  0  0
 25 44  1  0  0  0  0
 26 27  1  0  0  0  0
 27 45  1  0  0  0  0
 27 46  1  0  0  0  0
 27 47  1  0  0  0  0
M  END
$$$$
