p38a_2g
 OpenBabel02232411163D
Structure written by MMmdl.
 46 49  0  0  0  0  0  0  0  0999 V2000
   32.0710   39.6000   27.0300 C   0  0  0  0  0  0  0  0  0  0  0  0
   33.0550   40.2270   28.0260 C   0  0  0  0  0  0  0  0  0  0  0  0
   34.6410   38.4370   27.7490 C   0  0  0  0  0  0  0  0  0  0  0  0
   33.7210   37.6850   26.7880 C   0  0  0  0  0  0  0  0  0  0  0  0
   36.6630   36.0160   15.7090 C   0  0  0  0  0  0  0  0  0  0  0  0
   33.8800   39.2410   28.6810 O   0  0  0  0  0  0  0  0  0  0  0  0
   34.4170   34.8900   21.0660 C   0  0  0  0  0  0  0  0  0  0  0  0
   35.8970   35.5420   16.7710 C   0  0  0  0  0  0  0  0  0  0  0  0
   33.8240   38.8520   23.7800 C   0  0  0  0  0  0  0  0  0  0  0  0
   32.7480   38.6240   26.0460 C   0  0  0  0  0  0  0  0  0  0  0  0
   34.7300   37.7340   21.4250 C   0  0  0  0  0  0  0  0  0  0  0  0
   35.2550   37.1110   20.2390 C   0  0  0  0  0  0  0  0  0  0  0  0
   37.9470   36.5020   15.9860 C   0  0  0  0  0  0  0  0  0  0  0  0
   38.4470   36.5040   17.2920 C   0  0  0  0  0  0  0  0  0  0  0  0
   37.6610   36.0660   18.3650 C   0  0  0  0  0  0  0  0  0  0  0  0
   34.0970   36.9430   22.4290 C   0  0  0  0  0  0  0  0  0  0  0  0
   34.8190   39.1300   21.6740 C   0  0  0  0  0  0  0  0  0  0  0  0
   35.1230   35.7720   20.0970 C   0  0  0  0  0  0  0  0  0  0  0  0
   36.3810   35.5840   18.0930 C   0  0  0  0  0  0  0  0  0  0  0  0
   33.2530   34.7670   23.3040 C   0  0  0  0  0  0  0  0  0  0  0  0
   34.6920   35.0220   16.5670 F   0  0  0  0  0  0  0  0  0  0  0  0
   35.5520   34.9740   19.0410 O   0  0  0  0  0  0  0  0  0  0  0  0
   34.3920   39.7020   22.8090 N   0  0  0  0  0  0  0  0  0  0  0  0
   34.2380   33.7000   20.9210 O   0  0  0  0  0  0  0  0  0  0  0  0
   33.9320   35.5590   22.2400 N   0  0  0  0  0  0  0  0  0  0  0  0
   33.6400   37.4930   23.5990 N   0  0  0  0  0  0  0  0  0  0  0  0
   33.4290   39.4140   24.9680 N   0  0  0  0  0  0  0  0  0  0  0  0
   31.2840   39.0310   27.5840 H   0  0  0  0  0  0  0  0  0  0  0  0
   31.5700   40.4170   26.4570 H   0  0  0  0  0  0  0  0  0  0  0  0
   33.7180   40.9610   27.5140 H   0  0  0  0  0  0  0  0  0  0  0  0
   32.5160   40.6940   28.8810 H   0  0  0  0  0  0  0  0  0  0  0  0
   35.1750   37.7340   28.4300 H   0  0  0  0  0  0  0  0  0  0  0  0
   35.3480   39.0970   27.1970 H   0  0  0  0  0  0  0  0  0  0  0  0
   34.3380   37.1070   26.0560 H   0  0  0  0  0  0  0  0  0  0  0  0
   33.1020   36.9420   27.3560 H   0  0  0  0  0  0  0  0  0  0  0  0
   36.2720   36.0310   14.6920 H   0  0  0  0  0  0  0  0  0  0  0  0
   31.9480   37.9960   25.5540 H   0  0  0  0  0  0  0  0  0  0  0  0
   35.7520   37.7470   19.5020 H   0  0  0  0  0  0  0  0  0  0  0  0
   39.4570   36.8730   17.4800 H   0  0  0  0  0  0  0  0  0  0  0  0
   38.0450   36.1250   19.3840 H   0  0  0  0  0  0  0  0  0  0  0  0
   35.2550   39.7960   20.9110 H   0  0  0  0  0  0  0  0  0  0  0  0
   33.8280   34.8450   24.2660 H   0  0  0  0  0  0  0  0  0  0  0  0
   32.2180   35.1710   23.4800 H   0  0  0  0  0  0  0  0  0  0  0  0
   33.1810   33.6910   23.0030 H   0  0  0  0  0  0  0  0  0  0  0  0
   33.5660   40.4300   25.1290 H   0  0  0  0  0  0  0  0  0  0  0  0
   38.5530   36.9050   15.1740 H   0  0  0  0  0  0  0  0  0  0  0  0
  1  2  1  0  0  0  0
  1 10  1  0  0  0  0
  1 28  1  0  0  0  0
  1 29  1  0  0  0  0
  2  6  1  0  0  0  0
  2 30  1  0  0  0  0
  2 31  1  0  0  0  0
  3  4  1  0  0  0  0
  3  6  1  0  0  0  0
  3 32  1  0  0  0  0
  3 33  1  0  0  0  0
  4 10  1  0  0  0  0
  4 34  1  0  0  0  0
  4 35  1  0  0  0  0
  5  8  2  0  0  0  0
  5 13  1  0  0  0  0
  5 36  1  0  0  0  0
  7 18  1  0  0  0  0
  7 24  2  0  0  0  0
  7 25  1  0  0  0  0
  8 19  1  0  0  0  0
  8 21  1  0  0  0  0
  9 23  2  0  0  0  0
  9 26  1  0  0  0  0
  9 27  1  0  0  0  0
 10 27  1  0  0  0  0
 10 37  1  0  0  0  0
 11 12  1  0  0  0  0
 11 16  1  0  0  0  0
 11 17  2  0  0  0  0
 12 18  2  0  0  0  0
 12 38  1  0  0  0  0
 13 14  2  0  0  0  0
 13 46  1  0  0  0  0
 14 15  1  0  0  0  0
 14 39  1  0  0  0  0
 15 19  2  0  0  0  0
 15 40  1  0  0  0  0
 16 25  1  0  0  0  0
 16 26  2  0  0  0  0
 17 23  1  0  0  0  0
 17 41  1  0  0  0  0
 18 22  1  0  0  0  0
 19 22  1  0  0  0  0
 20 25  1  0  0  0  0
 20 42  1  0  0  0  0
 20 43  1  0  0  0  0
 20 44  1  0  0  0  0
 27 45  1  0  0  0  0
M  END
$$$$
