p38a_2u
 OpenBabel02232411163D
Structure written by MMmdl.
 64 68  0  0  0  0  0  0  0  0999 V2000
   38.2950   36.5540   17.1330 C   0  0  0  0  0  0  0  0  0  0  0  0
   34.5630   35.1000   21.1780 C   0  0  0  0  0  0  0  0  0  0  0  0
   37.4980   36.0990   18.1800 C   0  0  0  0  0  0  0  0  0  0  0  0
   34.0450   39.1520   23.7740 C   0  0  0  0  0  0  0  0  0  0  0  0
   34.6600   37.9580   21.3710 C   0  0  0  0  0  0  0  0  0  0  0  0
   35.0450   37.3270   20.1390 C   0  0  0  0  0  0  0  0  0  0  0  0
   37.6610   36.7230   15.8950 C   0  0  0  0  0  0  0  0  0  0  0  0
   36.3120   36.4330   15.6730 C   0  0  0  0  0  0  0  0  0  0  0  0
   35.5350   35.9650   16.7370 C   0  0  0  0  0  0  0  0  0  0  0  0
   34.3190   37.1750   22.5170 C   0  0  0  0  0  0  0  0  0  0  0  0
   34.6210   39.3720   21.5160 C   0  0  0  0  0  0  0  0  0  0  0  0
   35.0320   35.9770   20.0760 C   0  0  0  0  0  0  0  0  0  0  0  0
   36.1340   35.7930   17.9890 C   0  0  0  0  0  0  0  0  0  0  0  0
   38.0170   35.9530   19.3920 F   0  0  0  0  0  0  0  0  0  0  0  0
   35.3940   35.1670   19.0000 O   0  0  0  0  0  0  0  0  0  0  0  0
   34.3270   39.9840   22.6710 N   0  0  0  0  0  0  0  0  0  0  0  0
   34.4170   33.8990   21.0860 O   0  0  0  0  0  0  0  0  0  0  0  0
   34.2670   35.7690   22.4220 N   0  0  0  0  0  0  0  0  0  0  0  0
   34.0360   37.7710   23.7170 N   0  0  0  0  0  0  0  0  0  0  0  0
   33.6940   39.7680   24.9530 N   0  0  0  0  0  0  0  0  0  0  0  0
   39.3500   36.8040   17.2810 H   0  0  0  0  0  0  0  0  0  0  0  0
   35.3450   37.9610   19.3030 H   0  0  0  0  0  0  0  0  0  0  0  0
   35.8530   36.5840   14.6940 H   0  0  0  0  0  0  0  0  0  0  0  0
   34.4710   35.7550   16.5870 H   0  0  0  0  0  0  0  0  0  0  0  0
   34.8380   40.0160   20.6470 H   0  0  0  0  0  0  0  0  0  0  0  0
   33.7940   40.7990   25.0370 H   0  0  0  0  0  0  0  0  0  0  0  0
   38.3710   37.2240   14.8870 F   0  0  0  0  0  0  0  0  0  0  0  0
   32.4780   39.0680   28.5030 C   0  0  0  0  0  0  0  0  0  0  0  0
   32.5230   39.7210   27.1170 C   0  0  0  0  0  0  0  0  0  0  0  0
   33.5910   39.0260   26.2470 C   0  0  0  0  0  0  0  0  0  0  0  0
   34.9550   39.0230   26.9710 C   0  0  0  0  0  0  0  0  0  0  0  0
   34.8000   38.4060   28.3660 C   0  0  0  0  0  0  0  0  0  0  0  0
   33.7770   39.0720   29.1390 O   0  0  0  0  0  0  0  0  0  0  0  0
   32.1110   38.0190   28.4360 H   0  0  0  0  0  0  0  0  0  0  0  0
   31.8700   39.6770   29.2120 H   0  0  0  0  0  0  0  0  0  0  0  0
   32.7680   40.8050   27.2210 H   0  0  0  0  0  0  0  0  0  0  0  0
   31.5250   39.6330   26.6240 H   0  0  0  0  0  0  0  0  0  0  0  0
   33.2720   37.9670   26.0360 H   0  0  0  0  0  0  0  0  0  0  0  0
   35.6910   38.4250   26.3840 H   0  0  0  0  0  0  0  0  0  0  0  0
   35.3380   40.0680   27.0570 H   0  0  0  0  0  0  0  0  0  0  0  0
   34.5530   37.3220   28.2910 H   0  0  0  0  0  0  0  0  0  0  0  0
   35.7130   38.5770   28.9830 H   0  0  0  0  0  0  0  0  0  0  0  0
   32.0090   34.0590   25.0460 C   0  0  0  0  0  0  0  0  0  0  0  0
   32.4130   35.1520   24.0360 C   0  0  0  0  0  0  0  0  0  0  0  0
   33.8560   34.8890   23.5780 C   0  0  0  0  0  0  0  0  0  0  0  0
   34.7970   35.0020   24.7900 C   0  0  0  0  0  0  0  0  0  0  0  0
   34.4030   33.9280   25.8290 C   0  0  0  0  0  0  0  0  0  0  0  0
   31.9630   33.0700   24.5180 H   0  0  0  0  0  0  0  0  0  0  0  0
   30.9920   34.3260   25.4430 H   0  0  0  0  0  0  0  0  0  0  0  0
   32.3380   36.1540   24.5310 H   0  0  0  0  0  0  0  0  0  0  0  0
   31.7060   35.1310   23.1760 H   0  0  0  0  0  0  0  0  0  0  0  0
   33.9200   33.8260   23.1900 H   0  0  0  0  0  0  0  0  0  0  0  0
   35.8550   34.8410   24.4880 H   0  0  0  0  0  0  0  0  0  0  0  0
   34.7090   36.0120   25.2650 H   0  0  0  0  0  0  0  0  0  0  0  0
   34.6660   32.9170   25.4140 H   0  0  0  0  0  0  0  0  0  0  0  0
   35.0100   34.1260   26.7540 H   0  0  0  0  0  0  0  0  0  0  0  0
   32.9570   33.9950   26.2030 N   0  0  0  0  0  0  0  0  0  0  0  0
   32.4320   33.0990   27.5790 S   0  0  0  0  0  0  0  0  0  0  0  0
   31.1980   32.3680   27.2150 O   0  0  0  0  0  0  0  0  0  0  0  0
   32.1980   34.0340   28.6920 O   0  0  0  0  0  0  0  0  0  0  0  0
   33.6960   31.9800   27.9870 C   0  0  0  0  0  0  0  0  0  0  0  0
   34.6080   32.4840   28.4020 H   0  0  0  0  0  0  0  0  0  0  0  0
   33.3600   31.2600   28.7840 H   0  0  0  0  0  0  0  0  0  0  0  0
   34.0160   31.3450   27.1220 H   0  0  0  0  0  0  0  0  0  0  0  0
  1  3  2  0  0  0  0
  1  7  1  0  0  0  0
  1 21  1  0  0  0  0
  2 12  1  0  0  0  0
  2 17  2  0  0  0  0
  2 18  1  0  0  0  0
  3 13  1  0  0  0  0
  3 14  1  0  0  0  0
  4 16  2  0  0  0  0
  4 19  1  0  0  0  0
  4 20  1  0  0  0  0
  5  6  1  0  0  0  0
  5 10  1  0  0  0  0
  5 11  2  0  0  0  0
  6 12  2  0  0  0  0
  6 22  1  0  0  0  0
  7  8  2  0  0  0  0
  7 27  1  0  0  0  0
  8  9  1  0  0  0  0
  8 23  1  0  0  0  0
  9 13  2  0  0  0  0
  9 24  1  0  0  0  0
 10 18  1  0  0  0  0
 10 19  2  0  0  0  0
 11 16  1  0  0  0  0
 11 25  1  0  0  0  0
 12 15  1  0  0  0  0
 13 15  1  0  0  0  0
 18 45  1  0  0  0  0
 20 26  1  0  0  0  0
 20 30  1  0  0  0  0
 28 29  1  0  0  0  0
 28 33  1  0  0  0  0
 28 34  1  0  0  0  0
 28 35  1  0  0  0  0
 29 30  1  0  0  0  0
 29 36  1  0  0  0  0
 29 37  1  0  0  0  0
 30 31  1  0  0  0  0
 30 38  1  0  0  0  0
 31 32  1  0  0  0  0
 31 39  1  0  0  0  0
 31 40  1  0  0  0  0
 32 33  1  0  0  0  0
 32 41  1  0  0  0  0
 32 42  1  0  0  0  0
 43 44  1  0  0  0  0
 43 48  1  0  0  0  0
 43 49  1  0  0  0  0
 43 57  1  0  0  0  0
 44 45  1  0  0  0  0
 44 50  1  0  0  0  0
 44 51  1  0  0  0  0
 45 46  1  0  0  0  0
 45 52  1  0  0  0  0
 46 47  1  0  0  0  0
 46 53  1  0  0  0  0
 46 54  1  0  0  0  0
 47 55  1  0  0  0  0
 47 56  1  0  0  0  0
 47 57  1  0  0  0  0
 57 58  1  0  0  0  0
 58 59  2  0  0  0  0
 58 60  2  0  0  0  0
 58 61  1  0  0  0  0
 61 62  1  0  0  0  0
 61 63  1  0  0  0  0
 61 64  1  0  0  0  0
M  END
$$$$
