p38a_2aa
 OpenBabel02232411163D
Structure written by MMmdl.
 43 45  0  0  0  0  0  0  0  0999 V2000
   38.2960   36.5470   17.1580 C   0  0  0  0  0  0  0  0  0  0  0  0
   34.4910   35.1280   21.2150 C   0  0  0  0  0  0  0  0  0  0  0  0
   37.5190   36.0920   18.2200 C   0  0  0  0  0  0  0  0  0  0  0  0
   33.7720   39.2530   23.6330 C   0  0  0  0  0  0  0  0  0  0  0  0
   33.0480   39.2110   26.0380 C   0  0  0  0  0  0  0  0  0  0  0  0
   34.5770   38.0100   21.3150 C   0  0  0  0  0  0  0  0  0  0  0  0
   35.0330   37.3290   20.1330 C   0  0  0  0  0  0  0  0  0  0  0  0
   37.6430   36.6960   15.9270 C   0  0  0  0  0  0  0  0  0  0  0  0
   36.2950   36.3880   15.7280 C   0  0  0  0  0  0  0  0  0  0  0  0
   35.5390   35.9190   16.8070 C   0  0  0  0  0  0  0  0  0  0  0  0
   34.1360   37.2590   22.4450 C   0  0  0  0  0  0  0  0  0  0  0  0
   34.5570   39.4250   21.4330 C   0  0  0  0  0  0  0  0  0  0  0  0
   35.0170   35.9770   20.1130 C   0  0  0  0  0  0  0  0  0  0  0  0
   36.1580   35.7620   18.0500 C   0  0  0  0  0  0  0  0  0  0  0  0
   33.5940   35.1050   23.5760 C   0  0  0  0  0  0  0  0  0  0  0  0
   38.0550   35.9670   19.4270 F   0  0  0  0  0  0  0  0  0  0  0  0
   35.4510   35.1380   19.0880 O   0  0  0  0  0  0  0  0  0  0  0  0
   34.1840   40.0590   22.5560 N   0  0  0  0  0  0  0  0  0  0  0  0
   34.3820   33.9210   21.1860 O   0  0  0  0  0  0  0  0  0  0  0  0
   34.0930   35.8570   22.3900 N   0  0  0  0  0  0  0  0  0  0  0  0
   33.7450   37.8750   23.6100 N   0  0  0  0  0  0  0  0  0  0  0  0
   33.2920   39.9110   24.7490 N   0  0  0  0  0  0  0  0  0  0  0  0
   39.3500   36.8120   17.2880 H   0  0  0  0  0  0  0  0  0  0  0  0
   33.4660   40.1000   27.2420 C   0  0  0  0  0  0  0  0  0  0  0  0
   35.3860   37.9320   19.2950 H   0  0  0  0  0  0  0  0  0  0  0  0
   35.8210   36.5250   14.7540 H   0  0  0  0  0  0  0  0  0  0  0  0
   34.4760   35.6950   16.6720 H   0  0  0  0  0  0  0  0  0  0  0  0
   34.8550   40.0510   20.5760 H   0  0  0  0  0  0  0  0  0  0  0  0
   34.2070   35.3630   24.4820 H   0  0  0  0  0  0  0  0  0  0  0  0
   32.5240   35.3810   23.7820 H   0  0  0  0  0  0  0  0  0  0  0  0
   33.6590   34.0010   23.3930 H   0  0  0  0  0  0  0  0  0  0  0  0
   33.4250   40.9350   24.8200 H   0  0  0  0  0  0  0  0  0  0  0  0
   38.3340   37.1970   14.9060 F   0  0  0  0  0  0  0  0  0  0  0  0
   31.5250   38.8980   26.1050 C   0  0  0  0  0  0  0  0  0  0  0  0
   31.1080   38.7450   27.4670 O   0  0  0  0  0  0  0  0  0  0  0  0
   31.4560   37.8950   27.8340 H   0  0  0  0  0  0  0  0  0  0  0  0
   30.9190   39.7640   25.7540 H   0  0  0  0  0  0  0  0  0  0  0  0
   31.2890   37.9730   25.5300 H   0  0  0  0  0  0  0  0  0  0  0  0
   34.6970   40.7950   26.9910 O   0  0  0  0  0  0  0  0  0  0  0  0
   32.6730   40.8440   27.4800 H   0  0  0  0  0  0  0  0  0  0  0  0
   33.6980   39.4570   28.1240 H   0  0  0  0  0  0  0  0  0  0  0  0
   34.4650   41.6050   26.4300 H   0  0  0  0  0  0  0  0  0  0  0  0
   33.6270   38.2460   26.0830 H   0  0  0  0  0  0  0  0  0  0  0  0
  1  3  2  0  0  0  0
  1  8  1  0  0  0  0
  1 23  1  0  0  0  0
  2 13  1  0  0  0  0
  2 19  2  0  0  0  0
  2 20  1  0  0  0  0
  3 14  1  0  0  0  0
  3 16  1  0  0  0  0
  4 18  2  0  0  0  0
  4 21  1  0  0  0  0
  4 22  1  0  0  0  0
  5 22  1  0  0  0  0
  5 24  1  0  0  0  0
  5 34  1  0  0  0  0
  5 43  1  0  0  0  0
  6  7  1  0  0  0  0
  6 11  1  0  0  0  0
  6 12  2  0  0  0  0
  7 13  2  0  0  0  0
  7 25  1  0  0  0  0
  8  9  2  0  0  0  0
  8 33  1  0  0  0  0
  9 10  1  0  0  0  0
  9 26  1  0  0  0  0
 10 14  2  0  0  0  0
 10 27  1  0  0  0  0
 11 20  1  0  0  0  0
 11 21  2  0  0  0  0
 12 18  1  0  0  0  0
 12 28  1  0  0  0  0
 13 17  1  0  0  0  0
 14 17  1  0  0  0  0
 15 20  1  0  0  0  0
 15 29  1  0  0  0  0
 15 30  1  0  0  0  0
 15 31  1  0  0  0  0
 22 32  1  0  0  0  0
 24 39  1  0  0  0  0
 24 40  1  0  0  0  0
 24 41  1  0  0  0  0
 34 35  1  0  0  0  0
 34 37  1  0  0  0  0
 34 38  1  0  0  0  0
 35 36  1  0  0  0  0
 39 42  1  0  0  0  0
M  END
$$$$
