p38a_2j
 OpenBabel02232411163D
Structure written by MMmdl.
 48 51  0  0  0  0  0  0  0  0999 V2000
   34.0830   38.7450   27.0730 C   0  0  0  0  0  0  0  0  0  0  0  0
   33.4970   38.2830   28.4130 C   0  0  0  0  0  0  0  0  0  0  0  0
   31.2410   38.3100   27.5440 C   0  0  0  0  0  0  0  0  0  0  0  0
   31.7160   38.7890   26.1650 C   0  0  0  0  0  0  0  0  0  0  0  0
   38.0640   36.3800   17.4260 C   0  0  0  0  0  0  0  0  0  0  0  0
   32.2630   37.5530   28.2330 O   0  0  0  0  0  0  0  0  0  0  0  0
   34.3250   35.2290   21.4640 C   0  0  0  0  0  0  0  0  0  0  0  0
   37.1010   35.9420   18.3380 C   0  0  0  0  0  0  0  0  0  0  0  0
   33.8770   39.3850   23.8950 C   0  0  0  0  0  0  0  0  0  0  0  0
   33.0300   39.5810   26.3190 C   0  0  0  0  0  0  0  0  0  0  0  0
   34.4410   38.0870   21.5240 C   0  0  0  0  0  0  0  0  0  0  0  0
   34.6640   37.3790   20.2970 C   0  0  0  0  0  0  0  0  0  0  0  0
   36.2880   36.4560   15.7320 C   0  0  0  0  0  0  0  0  0  0  0  0
   35.3640   36.0110   16.6820 C   0  0  0  0  0  0  0  0  0  0  0  0
   34.1280   37.3640   22.7150 C   0  0  0  0  0  0  0  0  0  0  0  0
   34.4890   39.5050   21.6250 C   0  0  0  0  0  0  0  0  0  0  0  0
   34.5990   36.0240   20.2560 C   0  0  0  0  0  0  0  0  0  0  0  0
   35.7470   35.7450   18.0060 C   0  0  0  0  0  0  0  0  0  0  0  0
   33.8080   35.2210   23.9450 C   0  0  0  0  0  0  0  0  0  0  0  0
   37.5010   35.6940   19.5830 F   0  0  0  0  0  0  0  0  0  0  0  0
   34.7270   35.2310   18.9850 C   0  0  0  0  0  0  0  0  0  0  0  0
   34.2350   40.1600   22.7630 N   0  0  0  0  0  0  0  0  0  0  0  0
   34.2650   34.0140   21.5320 O   0  0  0  0  0  0  0  0  0  0  0  0
   34.1050   35.9690   22.6910 N   0  0  0  0  0  0  0  0  0  0  0  0
   33.8420   38.0080   23.8990 N   0  0  0  0  0  0  0  0  0  0  0  0
   33.5430   40.1010   25.0170 N   0  0  0  0  0  0  0  0  0  0  0  0
   34.9960   39.3610   27.2590 H   0  0  0  0  0  0  0  0  0  0  0  0
   34.3770   37.8540   26.4660 H   0  0  0  0  0  0  0  0  0  0  0  0
   34.1530   37.5250   28.9010 H   0  0  0  0  0  0  0  0  0  0  0  0
   33.3100   39.1510   29.0890 H   0  0  0  0  0  0  0  0  0  0  0  0
   30.9360   39.1640   28.1880 H   0  0  0  0  0  0  0  0  0  0  0  0
   30.4200   37.5620   27.4490 H   0  0  0  0  0  0  0  0  0  0  0  0
   31.8760   37.9020   25.5040 H   0  0  0  0  0  0  0  0  0  0  0  0
   30.9330   39.4350   25.7040 H   0  0  0  0  0  0  0  0  0  0  0  0
   39.1060   36.5490   17.7110 H   0  0  0  0  0  0  0  0  0  0  0  0
   32.8170   40.5190   26.9190 H   0  0  0  0  0  0  0  0  0  0  0  0
   34.8730   37.9650   19.3950 H   0  0  0  0  0  0  0  0  0  0  0  0
   35.9610   36.6640   14.7130 H   0  0  0  0  0  0  0  0  0  0  0  0
   34.3220   35.8810   16.3740 H   0  0  0  0  0  0  0  0  0  0  0  0
   34.7350   40.1100   20.7360 H   0  0  0  0  0  0  0  0  0  0  0  0
   34.5360   35.5140   24.7480 H   0  0  0  0  0  0  0  0  0  0  0  0
   32.7690   35.4600   24.2960 H   0  0  0  0  0  0  0  0  0  0  0  0
   33.8900   34.1170   23.7610 H   0  0  0  0  0  0  0  0  0  0  0  0
   33.6810   41.1310   25.0110 H   0  0  0  0  0  0  0  0  0  0  0  0
   34.9830   34.1650   19.2310 H   0  0  0  0  0  0  0  0  0  0  0  0
   33.7100   35.2280   18.4950 H   0  0  0  0  0  0  0  0  0  0  0  0
   37.6130   36.6400   16.1290 C   0  0  0  0  0  0  0  0  0  0  0  0
   38.4790   37.1190   15.2380 F   0  0  0  0  0  0  0  0  0  0  0  0
  1  2  1  0  0  0  0
  1 10  1  0  0  0  0
  1 27  1  0  0  0  0
  1 28  1  0  0  0  0
  2  6  1  0  0  0  0
  2 29  1  0  0  0  0
  2 30  1  0  0  0  0
  3  4  1  0  0  0  0
  3  6  1  0  0  0  0
  3 31  1  0  0  0  0
  3 32  1  0  0  0  0
  4 10  1  0  0  0  0
  4 33  1  0  0  0  0
  4 34  1  0  0  0  0
  5  8  2  0  0  0  0
  5 35  1  0  0  0  0
  5 47  1  0  0  0  0
  7 17  1  0  0  0  0
  7 23  2  0  0  0  0
  7 24  1  0  0  0  0
  8 18  1  0  0  0  0
  8 20  1  0  0  0  0
  9 22  2  0  0  0  0
  9 25  1  0  0  0  0
  9 26  1  0  0  0  0
 10 26  1  0  0  0  0
 10 36  1  0  0  0  0
 11 12  1  0  0  0  0
 11 15  1  0  0  0  0
 11 16  2  0  0  0  0
 12 17  2  0  0  0  0
 12 37  1  0  0  0  0
 13 14  1  0  0  0  0
 13 38  1  0  0  0  0
 13 47  2  0  0  0  0
 14 18  2  0  0  0  0
 14 39  1  0  0  0  0
 15 24  1  0  0  0  0
 15 25  2  0  0  0  0
 16 22  1  0  0  0  0
 16 40  1  0  0  0  0
 17 21  1  0  0  0  0
 18 21  1  0  0  0  0
 19 24  1  0  0  0  0
 19 41  1  0  0  0  0
 19 42  1  0  0  0  0
 19 43  1  0  0  0  0
 21 45  1  0  0  0  0
 21 46  1  0  0  0  0
 26 44  1  0  0  0  0
 47 48  1  0  0  0  0
M  END
$$$$
