p38a_2o
 OpenBabel02232411163D
Structure written by MMmdl.
 55 58  0  0  0  0  0  0  0  0999 V2000
   38.2080   36.4810   17.2520 C   0  0  0  0  0  0  0  0  0  0  0  0
   34.5410   35.1190   21.3670 C   0  0  0  0  0  0  0  0  0  0  0  0
   37.4060   36.0600   18.3090 C   0  0  0  0  0  0  0  0  0  0  0  0
   34.1100   39.1770   23.9750 C   0  0  0  0  0  0  0  0  0  0  0  0
   34.6610   37.9950   21.5410 C   0  0  0  0  0  0  0  0  0  0  0  0
   34.9940   37.3490   20.3000 C   0  0  0  0  0  0  0  0  0  0  0  0
   37.5710   36.6490   16.0150 C   0  0  0  0  0  0  0  0  0  0  0  0
   36.2140   36.3950   15.8070 C   0  0  0  0  0  0  0  0  0  0  0  0
   35.4300   35.9670   16.8850 C   0  0  0  0  0  0  0  0  0  0  0  0
   34.3310   37.2130   22.6870 C   0  0  0  0  0  0  0  0  0  0  0  0
   34.6530   39.4060   21.7050 C   0  0  0  0  0  0  0  0  0  0  0  0
   34.9680   35.9980   20.2450 C   0  0  0  0  0  0  0  0  0  0  0  0
   36.0320   35.7890   18.1340 C   0  0  0  0  0  0  0  0  0  0  0  0
   37.9340   35.9040   19.5160 F   0  0  0  0  0  0  0  0  0  0  0  0
   35.2830   35.1880   19.1550 O   0  0  0  0  0  0  0  0  0  0  0  0
   34.3950   40.0110   22.8740 N   0  0  0  0  0  0  0  0  0  0  0  0
   34.4280   33.9150   21.3120 O   0  0  0  0  0  0  0  0  0  0  0  0
   34.2710   35.8090   22.6060 N   0  0  0  0  0  0  0  0  0  0  0  0
   34.0730   37.7970   23.9000 N   0  0  0  0  0  0  0  0  0  0  0  0
   33.8490   39.7670   25.1860 N   0  0  0  0  0  0  0  0  0  0  0  0
   39.2710   36.7070   17.3870 H   0  0  0  0  0  0  0  0  0  0  0  0
   35.2680   37.9770   19.4480 H   0  0  0  0  0  0  0  0  0  0  0  0
   35.7530   36.5410   14.8270 H   0  0  0  0  0  0  0  0  0  0  0  0
   34.3590   35.7890   16.7440 H   0  0  0  0  0  0  0  0  0  0  0  0
   34.8580   40.0570   20.8380 H   0  0  0  0  0  0  0  0  0  0  0  0
   33.8590   40.7990   25.2760 H   0  0  0  0  0  0  0  0  0  0  0  0
   38.2930   37.1110   14.9960 F   0  0  0  0  0  0  0  0  0  0  0  0
   33.4860   40.7340   28.2630 C   0  0  0  0  0  0  0  0  0  0  0  0
   32.6330   39.8380   27.3550 C   0  0  0  0  0  0  0  0  0  0  0  0
   33.4590   38.9630   26.3910 C   0  0  0  0  0  0  0  0  0  0  0  0
   34.6980   38.3620   27.0880 C   0  0  0  0  0  0  0  0  0  0  0  0
   35.4520   39.3990   27.9210 C   0  0  0  0  0  0  0  0  0  0  0  0
   34.5730   40.0220   28.8880 O   0  0  0  0  0  0  0  0  0  0  0  0
   32.8930   41.0900   29.1360 H   0  0  0  0  0  0  0  0  0  0  0  0
   33.9090   41.5860   27.6860 H   0  0  0  0  0  0  0  0  0  0  0  0
   31.9320   40.4820   26.7710 H   0  0  0  0  0  0  0  0  0  0  0  0
   32.0150   39.1480   27.9830 H   0  0  0  0  0  0  0  0  0  0  0  0
   32.7980   38.1170   26.0370 H   0  0  0  0  0  0  0  0  0  0  0  0
   34.3410   37.5290   27.7450 H   0  0  0  0  0  0  0  0  0  0  0  0
   35.3830   37.9180   26.3240 H   0  0  0  0  0  0  0  0  0  0  0  0
   36.2170   38.9210   28.5740 H   0  0  0  0  0  0  0  0  0  0  0  0
   35.8890   40.1920   27.2730 H   0  0  0  0  0  0  0  0  0  0  0  0
   33.8720   35.0150   23.8240 C   0  0  0  0  0  0  0  0  0  0  0  0
   34.1920   33.9520   23.6440 H   0  0  0  0  0  0  0  0  0  0  0  0
   34.4310   35.4400   24.7090 H   0  0  0  0  0  0  0  0  0  0  0  0
   32.3660   35.1090   24.0820 C   0  0  0  0  0  0  0  0  0  0  0  0
   32.1410   36.1280   24.5210 H   0  0  0  0  0  0  0  0  0  0  0  0
   31.7980   35.0840   23.1130 H   0  0  0  0  0  0  0  0  0  0  0  0
   31.7160   33.8710   25.1640 S   0  0  0  0  0  0  0  0  0  0  0  0
   32.6170   33.5920   26.3020 O   0  0  0  0  0  0  0  0  0  0  0  0
   31.4750   32.6310   24.3860 O   0  0  0  0  0  0  0  0  0  0  0  0
   30.2160   34.5450   25.7130 C   0  0  0  0  0  0  0  0  0  0  0  0
   29.5840   34.9290   24.8720 H   0  0  0  0  0  0  0  0  0  0  0  0
   29.5940   33.8150   26.2880 H   0  0  0  0  0  0  0  0  0  0  0  0
   30.3630   35.4220   26.4060 H   0  0  0  0  0  0  0  0  0  0  0  0
  1  3  2  0  0  0  0
  1  7  1  0  0  0  0
  1 21  1  0  0  0  0
  2 12  1  0  0  0  0
  2 17  2  0  0  0  0
  2 18  1  0  0  0  0
  3 13  1  0  0  0  0
  3 14  1  0  0  0  0
  4 16  2  0  0  0  0
  4 19  1  0  0  0  0
  4 20  1  0  0  0  0
  5  6  1  0  0  0  0
  5 10  1  0  0  0  0
  5 11  2  0  0  0  0
  6 12  2  0  0  0  0
  6 22  1  0  0  0  0
  7  8  2  0  0  0  0
  7 27  1  0  0  0  0
  8  9  1  0  0  0  0
  8 23  1  0  0  0  0
  9 13  2  0  0  0  0
  9 24  1  0  0  0  0
 10 18  1  0  0  0  0
 10 19  2  0  0  0  0
 11 16  1  0  0  0  0
 11 25  1  0  0  0  0
 12 15  1  0  0  0  0
 13 15  1  0  0  0  0
 18 43  1  0  0  0  0
 20 26  1  0  0  0  0
 20 30  1  0  0  0  0
 28 29  1  0  0  0  0
 28 33  1  0  0  0  0
 28 34  1  0  0  0  0
 28 35  1  0  0  0  0
 29 30  1  0  0  0  0
 29 36  1  0  0  0  0
 29 37  1  0  0  0  0
 30 31  1  0  0  0  0
 30 38  1  0  0  0  0
 31 32  1  0  0  0  0
 31 39  1  0  0  0  0
 31 40  1  0  0  0  0
 32 33  1  0  0  0  0
 32 41  1  0  0  0  0
 32 42  1  0  0  0  0
 43 44  1  0  0  0  0
 43 45  1  0  0  0  0
 43 46  1  0  0  0  0
 46 47  1  0  0  0  0
 46 48  1  0  0  0  0
 46 49  1  0  0  0  0
 49 50  2  0  0  0  0
 49 51  2  0  0  0  0
 49 52  1  0  0  0  0
 52 53  1  0  0  0  0
 52 54  1  0  0  0  0
 52 55  1  0  0  0  0
M  END
$$$$
