p38a_2j
 OpenBabel02232411163D
Structure written by MMmdl.
 48 51  0  0  0  0  0  0  0  0999 V2000
   32.6080   39.8520   27.3870 C   0  0  0  0  0  0  0  0  0  0  0  0
   33.4890   40.7270   28.2870 C   0  0  0  0  0  0  0  0  0  0  0  0
   35.4080   39.3140   27.9750 C   0  0  0  0  0  0  0  0  0  0  0  0
   34.6230   38.3090   27.1310 C   0  0  0  0  0  0  0  0  0  0  0  0
   38.0400   36.3790   17.3470 C   0  0  0  0  0  0  0  0  0  0  0  0
   34.5430   39.9790   28.9260 O   0  0  0  0  0  0  0  0  0  0  0  0
   34.3470   35.1770   21.2900 C   0  0  0  0  0  0  0  0  0  0  0  0
   37.0400   35.9500   18.2230 C   0  0  0  0  0  0  0  0  0  0  0  0
   34.0840   39.1690   24.0120 C   0  0  0  0  0  0  0  0  0  0  0  0
   33.4110   38.9520   26.4250 C   0  0  0  0  0  0  0  0  0  0  0  0
   34.5110   38.0280   21.5340 C   0  0  0  0  0  0  0  0  0  0  0  0
   34.6670   37.3990   20.2550 C   0  0  0  0  0  0  0  0  0  0  0  0
   36.3080   36.5750   15.6160 C   0  0  0  0  0  0  0  0  0  0  0  0
   35.3460   36.1390   16.5310 C   0  0  0  0  0  0  0  0  0  0  0  0
   34.2370   37.2270   22.6850 C   0  0  0  0  0  0  0  0  0  0  0  0
   34.5780   39.4350   21.7310 C   0  0  0  0  0  0  0  0  0  0  0  0
   34.5720   36.0500   20.1270 C   0  0  0  0  0  0  0  0  0  0  0  0
   35.6860   35.8260   17.8570 C   0  0  0  0  0  0  0  0  0  0  0  0
   33.8980   35.0190   23.7820 C   0  0  0  0  0  0  0  0  0  0  0  0
   37.4040   35.6380   19.4650 F   0  0  0  0  0  0  0  0  0  0  0  0
   34.6140   35.3500   18.7980 C   0  0  0  0  0  0  0  0  0  0  0  0
   34.3820   40.0180   22.9200 N   0  0  0  0  0  0  0  0  0  0  0  0
   34.2920   33.9600   21.2810 O   0  0  0  0  0  0  0  0  0  0  0  0
   34.1800   35.8370   22.5690 N   0  0  0  0  0  0  0  0  0  0  0  0
   34.0220   37.7910   23.9190 N   0  0  0  0  0  0  0  0  0  0  0  0
   33.8280   39.7520   25.2270 N   0  0  0  0  0  0  0  0  0  0  0  0
   31.9730   39.1830   28.0220 H   0  0  0  0  0  0  0  0  0  0  0  0
   31.9240   40.5150   26.8020 H   0  0  0  0  0  0  0  0  0  0  0  0
   33.9490   41.5570   27.7040 H   0  0  0  0  0  0  0  0  0  0  0  0
   32.9080   41.1170   29.1540 H   0  0  0  0  0  0  0  0  0  0  0  0
   36.1390   38.8030   28.6420 H   0  0  0  0  0  0  0  0  0  0  0  0
   35.8940   40.0840   27.3350 H   0  0  0  0  0  0  0  0  0  0  0  0
   35.3030   37.8390   26.3800 H   0  0  0  0  0  0  0  0  0  0  0  0
   34.2340   37.4870   27.7860 H   0  0  0  0  0  0  0  0  0  0  0  0
   39.0800   36.5010   17.6600 H   0  0  0  0  0  0  0  0  0  0  0  0
   32.7290   38.1240   26.0670 H   0  0  0  0  0  0  0  0  0  0  0  0
   34.8500   38.0380   19.3850 H   0  0  0  0  0  0  0  0  0  0  0  0
   36.0130   36.8270   14.5980 H   0  0  0  0  0  0  0  0  0  0  0  0
   34.3070   36.0520   16.1950 H   0  0  0  0  0  0  0  0  0  0  0  0
   34.7910   40.0950   20.8720 H   0  0  0  0  0  0  0  0  0  0  0  0
   34.6400   35.2580   24.5910 H   0  0  0  0  0  0  0  0  0  0  0  0
   32.8680   35.2450   24.1670 H   0  0  0  0  0  0  0  0  0  0  0  0
   33.9670   33.9270   23.5330 H   0  0  0  0  0  0  0  0  0  0  0  0
   33.8760   40.7820   25.3290 H   0  0  0  0  0  0  0  0  0  0  0  0
   34.7480   34.2450   18.9540 H   0  0  0  0  0  0  0  0  0  0  0  0
   33.6040   35.4970   18.3170 H   0  0  0  0  0  0  0  0  0  0  0  0
   37.6280   36.6980   16.0500 C   0  0  0  0  0  0  0  0  0  0  0  0
   38.5290   37.1750   15.1940 F   0  0  0  0  0  0  0  0  0  0  0  0
  1  2  1  0  0  0  0
  1 10  1  0  0  0  0
  1 27  1  0  0  0  0
  1 28  1  0  0  0  0
  2  6  1  0  0  0  0
  2 29  1  0  0  0  0
  2 30  1  0  0  0  0
  3  4  1  0  0  0  0
  3  6  1  0  0  0  0
  3 31  1  0  0  0  0
  3 32  1  0  0  0  0
  4 10  1  0  0  0  0
  4 33  1  0  0  0  0
  4 34  1  0  0  0  0
  5  8  2  0  0  0  0
  5 35  1  0  0  0  0
  5 47  1  0  0  0  0
  7 17  1  0  0  0  0
  7 23  2  0  0  0  0
  7 24  1  0  0  0  0
  8 18  1  0  0  0  0
  8 20  1  0  0  0  0
  9 22  2  0  0  0  0
  9 25  1  0  0  0  0
  9 26  1  0  0  0  0
 10 26  1  0  0  0  0
 10 36  1  0  0  0  0
 11 12  1  0  0  0  0
 11 15  1  0  0  0  0
 11 16  2  0  0  0  0
 12 17  2  0  0  0  0
 12 37  1  0  0  0  0
 13 14  1  0  0  0  0
 13 38  1  0  0  0  0
 13 47  2  0  0  0  0
 14 18  2  0  0  0  0
 14 39  1  0  0  0  0
 15 24  1  0  0  0  0
 15 25  2  0  0  0  0
 16 22  1  0  0  0  0
 16 40  1  0  0  0  0
 17 21  1  0  0  0  0
 18 21  1  0  0  0  0
 19 24  1  0  0  0  0
 19 41  1  0  0  0  0
 19 42  1  0  0  0  0
 19 43  1  0  0  0  0
 21 45  1  0  0  0  0
 21 46  1  0  0  0  0
 26 44  1  0  0  0  0
 47 48  1  0  0  0  0
M  END
$$$$
