20
 OpenBabel02232411153D
Structure written by MMmdl.
 49 52  0  0  0  0  0  0  0  0999 V2000
    1.9320   28.8290    6.8150 C   0  0  0  0  0  0  0  0  0  0  0  0
   -1.5600   31.4270    7.9480 C   0  0  0  0  0  0  0  0  0  0  0  0
   -0.0270   25.9710    8.9460 C   0  0  0  0  0  0  0  0  0  0  0  0
   -0.8380   25.2570   10.0340 C   0  0  0  0  0  0  0  0  0  0  0  0
   -0.6750   23.7360    9.8130 C   0  0  0  0  0  0  0  0  0  0  0  0
   -1.3650   22.9330   10.9240 C   0  0  0  0  0  0  0  0  0  0  0  0
   -0.8720   23.3520   12.3180 C   0  0  0  0  0  0  0  0  0  0  0  0
   -1.0510   24.8620   12.5410 C   0  0  0  0  0  0  0  0  0  0  0  0
   -0.3610   25.6780   11.4380 C   0  0  0  0  0  0  0  0  0  0  0  0
    5.4530   25.6060    5.6560 C   0  0  0  0  0  0  0  0  0  0  0  0
    5.3350   24.8500    6.8320 C   0  0  0  0  0  0  0  0  0  0  0  0
    4.4950   25.2910    7.8560 C   0  0  0  0  0  0  0  0  0  0  0  0
    3.7600   26.4720    7.7270 C   0  0  0  0  0  0  0  0  0  0  0  0
    1.2170   27.8800    7.5410 N   0  0  0  0  0  0  0  0  0  0  0  0
    0.0160   28.2100    8.0800 C   0  0  0  0  0  0  0  0  0  0  0  0
   -0.6610   27.3090    8.8090 O   0  0  0  0  0  0  0  0  0  0  0  0
   -0.5150   29.5130    7.8940 C   0  0  0  0  0  0  0  0  0  0  0  0
   -1.6630   30.1620    8.3620 N   0  0  0  0  0  0  0  0  0  0  0  0
   -0.3460   31.6610    7.2080 N   0  0  0  0  0  0  0  0  0  0  0  0
    0.3180   30.4390    7.1420 C   0  0  0  0  0  0  0  0  0  0  0  0
    1.5160   30.1270    6.5520 N   0  0  0  0  0  0  0  0  0  0  0  0
    3.1690   28.4510    6.3130 N   0  0  0  0  0  0  0  0  0  0  0  0
    3.8590   27.2140    6.5390 C   0  0  0  0  0  0  0  0  0  0  0  0
    4.7290   26.7920    5.5110 C   0  0  0  0  0  0  0  0  0  0  0  0
   -2.2630   32.2330    8.1350 H   0  0  0  0  0  0  0  0  0  0  0  0
    1.0360   26.1030    9.2460 H   0  0  0  0  0  0  0  0  0  0  0  0
   -0.1260   25.4870    7.9530 H   0  0  0  0  0  0  0  0  0  0  0  0
   -1.9180   25.5260    9.9370 H   0  0  0  0  0  0  0  0  0  0  0  0
   -1.1190   23.4570    8.8320 H   0  0  0  0  0  0  0  0  0  0  0  0
    0.4130   23.4770    9.8040 H   0  0  0  0  0  0  0  0  0  0  0  0
   -2.4620   23.1030   10.8680 H   0  0  0  0  0  0  0  0  0  0  0  0
   -1.1600   21.8470   10.7790 H   0  0  0  0  0  0  0  0  0  0  0  0
   -1.4440   22.7940   13.0940 H   0  0  0  0  0  0  0  0  0  0  0  0
    0.2080   23.0930   12.4150 H   0  0  0  0  0  0  0  0  0  0  0  0
   -2.1370   25.1070   12.5710 H   0  0  0  0  0  0  0  0  0  0  0  0
   -0.6040   25.1410   13.5240 H   0  0  0  0  0  0  0  0  0  0  0  0
    0.7430   25.5250   11.5230 H   0  0  0  0  0  0  0  0  0  0  0  0
   -0.5770   26.7600   11.5940 H   0  0  0  0  0  0  0  0  0  0  0  0
    5.8970   23.9230    6.9470 H   0  0  0  0  0  0  0  0  0  0  0  0
    4.4050   24.7040    8.7750 H   0  0  0  0  0  0  0  0  0  0  0  0
    3.1210   26.7930    8.5510 H   0  0  0  0  0  0  0  0  0  0  0  0
   -0.0850   32.5440    6.7460 H   0  0  0  0  0  0  0  0  0  0  0  0
    3.6640   29.1080    5.6640 H   0  0  0  0  0  0  0  0  0  0  0  0
    4.8420   27.3920    4.6060 H   0  0  0  0  0  0  0  0  0  0  0  0
    6.3540   25.1370    4.5390 C   0  0  0  0  0  0  0  0  0  0  0  0
    6.9160   25.9870    4.0800 H   0  0  0  0  0  0  0  0  0  0  0  0
    7.0670   24.3440    4.8740 H   0  0  0  0  0  0  0  0  0  0  0  0
    5.4630   24.5680    3.5460 O   0  0  0  0  0  0  0  0  0  0  0  0
    6.0160   24.2860    2.7670 H   0  0  0  0  0  0  0  0  0  0  0  0
  1 14  2  0  0  0  0
  1 21  1  0  0  0  0
  1 22  1  0  0  0  0
  2 18  2  0  0  0  0
  2 19  1  0  0  0  0
  2 25  1  0  0  0  0
  3  4  1  0  0  0  0
  3 16  1  0  0  0  0
  3 26  1  0  0  0  0
  3 27  1  0  0  0  0
  4  5  1  0  0  0  0
  4  9  1  0  0  0  0
  4 28  1  0  0  0  0
  5  6  1  0  0  0  0
  5 29  1  0  0  0  0
  5 30  1  0  0  0  0
  6  7  1  0  0  0  0
  6 31  1  0  0  0  0
  6 32  1  0  0  0  0
  7  8  1  0  0  0  0
  7 33  1  0  0  0  0
  7 34  1  0  0  0  0
  8  9  1  0  0  0  0
  8 35  1  0  0  0  0
  8 36  1  0  0  0  0
  9 37  1  0  0  0  0
  9 38  1  0  0  0  0
 10 11  2  0  0  0  0
 10 24  1  0  0  0  0
 10 45  1  0  0  0  0
 11 12  1  0  0  0  0
 11 39  1  0  0  0  0
 12 13  2  0  0  0  0
 12 40  1  0  0  0  0
 13 23  1  0  0  0  0
 13 41  1  0  0  0  0
 14 15  1  0  0  0  0
 15 16  1  0  0  0  0
 15 17  2  0  0  0  0
 17 18  1  0  0  0  0
 17 20  1  0  0  0  0
 19 20  1  0  0  0  0
 19 42  1  0  0  0  0
 20 21  2  0  0  0  0
 22 23  1  0  0  0  0
 22 43  1  0  0  0  0
 23 24  2  0  0  0  0
 24 44  1  0  0  0  0
 45 46  1  0  0  0  0
 45 47  1  0  0  0  0
 45 48  1  0  0  0  0
 48 49  1  0  0  0  0
M  END
$$$$
