p38a_2gg
 OpenBabel02232411163D
Structure written by MMmdl.
 48 51  0  0  0  0  0  0  0  0999 V2000
   38.2190   36.5070   17.1880 C   0  0  0  0  0  0  0  0  0  0  0  0
   34.5720   35.1770   21.2770 C   0  0  0  0  0  0  0  0  0  0  0  0
   37.4020   36.0720   18.2270 C   0  0  0  0  0  0  0  0  0  0  0  0
   34.2560   39.2760   23.8240 C   0  0  0  0  0  0  0  0  0  0  0  0
   34.6450   38.0530   21.3820 C   0  0  0  0  0  0  0  0  0  0  0  0
   34.9490   37.3860   20.1460 C   0  0  0  0  0  0  0  0  0  0  0  0
   37.5980   36.6960   15.9450 C   0  0  0  0  0  0  0  0  0  0  0  0
   36.2430   36.4460   15.7150 C   0  0  0  0  0  0  0  0  0  0  0  0
   35.4450   35.9990   16.7740 C   0  0  0  0  0  0  0  0  0  0  0  0
   34.4190   37.2940   22.5690 C   0  0  0  0  0  0  0  0  0  0  0  0
   34.5760   39.4660   21.5030 C   0  0  0  0  0  0  0  0  0  0  0  0
   34.9520   36.0330   20.1210 C   0  0  0  0  0  0  0  0  0  0  0  0
   36.0300   35.8060   18.0280 C   0  0  0  0  0  0  0  0  0  0  0  0
   34.1780   35.1250   23.7720 C   0  0  0  0  0  0  0  0  0  0  0  0
   37.9100   35.9010   19.4410 F   0  0  0  0  0  0  0  0  0  0  0  0
   35.2650   35.2100   19.0410 O   0  0  0  0  0  0  0  0  0  0  0  0
   34.3810   40.0850   22.6770 N   0  0  0  0  0  0  0  0  0  0  0  0
   34.4150   33.9770   21.2460 O   0  0  0  0  0  0  0  0  0  0  0  0
   34.3850   35.8940   22.5130 N   0  0  0  0  0  0  0  0  0  0  0  0
   34.2200   37.9020   23.7880 N   0  0  0  0  0  0  0  0  0  0  0  0
   34.2510   39.9580   25.0300 N   0  0  0  0  0  0  0  0  0  0  0  0
   39.2800   36.7290   17.3400 H   0  0  0  0  0  0  0  0  0  0  0  0
   35.1840   37.9980   19.2730 H   0  0  0  0  0  0  0  0  0  0  0  0
   35.7960   36.6090   14.7320 H   0  0  0  0  0  0  0  0  0  0  0  0
   34.3770   35.8200   16.6140 H   0  0  0  0  0  0  0  0  0  0  0  0
   34.6750   40.1050   20.6100 H   0  0  0  0  0  0  0  0  0  0  0  0
   35.0070   35.3520   24.4950 H   0  0  0  0  0  0  0  0  0  0  0  0
   33.2020   35.4240   24.2430 H   0  0  0  0  0  0  0  0  0  0  0  0
   34.1630   34.0250   23.5580 H   0  0  0  0  0  0  0  0  0  0  0  0
   34.0810   40.9860   24.9970 H   0  0  0  0  0  0  0  0  0  0  0  0
   38.3300   37.1770   14.9430 F   0  0  0  0  0  0  0  0  0  0  0  0
   34.4970   37.7790   28.1930 C   0  0  0  0  0  0  0  0  0  0  0  0
   34.6780   38.1280   26.7150 C   0  0  0  0  0  0  0  0  0  0  0  0
   33.8790   39.3990   26.3620 C   0  0  0  0  0  0  0  0  0  0  0  0
   32.3500   39.1780   26.4820 C   0  0  0  0  0  0  0  0  0  0  0  0
   31.9580   38.9200   27.9380 C   0  0  0  0  0  0  0  0  0  0  0  0
   34.9330   38.6080   28.8150 H   0  0  0  0  0  0  0  0  0  0  0  0
   35.0970   36.8610   28.4240 H   0  0  0  0  0  0  0  0  0  0  0  0
   34.3590   37.2710   26.0700 H   0  0  0  0  0  0  0  0  0  0  0  0
   35.7610   38.3260   26.5160 H   0  0  0  0  0  0  0  0  0  0  0  0
   34.1750   40.2180   27.0880 H   0  0  0  0  0  0  0  0  0  0  0  0
   31.8290   40.1050   26.1270 H   0  0  0  0  0  0  0  0  0  0  0  0
   32.0320   38.3330   25.8250 H   0  0  0  0  0  0  0  0  0  0  0  0
   32.1980   39.8420   28.5390 H   0  0  0  0  0  0  0  0  0  0  0  0
   30.8480   38.7770   27.9970 H   0  0  0  0  0  0  0  0  0  0  0  0
   32.8090   37.5350   28.6130 S   0  0  0  0  0  0  0  0  0  0  0  0
   32.2980   36.2680   28.0420 O   0  0  0  0  0  0  0  0  0  0  0  0
   32.6600   37.5150   30.0940 O   0  0  0  0  0  0  0  0  0  0  0  0
  1  3  2  0  0  0  0
  1  7  1  0  0  0  0
  1 22  1  0  0  0  0
  2 12  1  0  0  0  0
  2 18  2  0  0  0  0
  2 19  1  0  0  0  0
  3 13  1  0  0  0  0
  3 15  1  0  0  0  0
  4 17  2  0  0  0  0
  4 20  1  0  0  0  0
  4 21  1  0  0  0  0
  5  6  1  0  0  0  0
  5 10  1  0  0  0  0
  5 11  2  0  0  0  0
  6 12  2  0  0  0  0
  6 23  1  0  0  0  0
  7  8  2  0  0  0  0
  7 31  1  0  0  0  0
  8  9  1  0  0  0  0
  8 24  1  0  0  0  0
  9 13  2  0  0  0  0
  9 25  1  0  0  0  0
 10 19  1  0  0  0  0
 10 20  2  0  0  0  0
 11 17  1  0  0  0  0
 11 26  1  0  0  0  0
 12 16  1  0  0  0  0
 13 16  1  0  0  0  0
 14 19  1  0  0  0  0
 14 27  1  0  0  0  0
 14 28  1  0  0  0  0
 14 29  1  0  0  0  0
 21 30  1  0  0  0  0
 21 34  1  0  0  0  0
 32 33  1  0  0  0  0
 32 37  1  0  0  0  0
 32 38  1  0  0  0  0
 32 46  1  0  0  0  0
 33 34  1  0  0  0  0
 33 39  1  0  0  0  0
 33 40  1  0  0  0  0
 34 35  1  0  0  0  0
 34 41  1  0  0  0  0
 35 36  1  0  0  0  0
 35 42  1  0  0  0  0
 35 43  1  0  0  0  0
 36 44  1  0  0  0  0
 36 45  1  0  0  0  0
 36 46  1  0  0  0  0
 46 47  2  0  0  0  0
 46 48  2  0  0  0  0
M  END
$$$$
