28
 OpenBabel02232411153D
Structure written by MMmdl.
 53 56  0  0  0  0  0  0  0  0999 V2000
    2.0100   28.8760    6.7450 C   0  0  0  0  0  0  0  0  0  0  0  0
   -1.4950   31.4280    7.9220 C   0  0  0  0  0  0  0  0  0  0  0  0
    0.1830   26.0450    9.0270 C   0  0  0  0  0  0  0  0  0  0  0  0
   -0.7080   25.3020   10.0300 C   0  0  0  0  0  0  0  0  0  0  0  0
   -0.5740   23.7870    9.7620 C   0  0  0  0  0  0  0  0  0  0  0  0
   -1.3730   22.9720   10.7880 C   0  0  0  0  0  0  0  0  0  0  0  0
   -0.9700   23.3210   12.2300 C   0  0  0  0  0  0  0  0  0  0  0  0
   -1.1080   24.8280   12.4980 C   0  0  0  0  0  0  0  0  0  0  0  0
   -0.3120   25.6530   11.4770 C   0  0  0  0  0  0  0  0  0  0  0  0
    5.3450   25.6820    5.0780 C   0  0  0  0  0  0  0  0  0  0  0  0
    5.3170   24.8180    6.1830 C   0  0  0  0  0  0  0  0  0  0  0  0
    4.6270   25.2240    7.3360 C   0  0  0  0  0  0  0  0  0  0  0  0
    3.9060   26.4190    7.3710 C   0  0  0  0  0  0  0  0  0  0  0  0
    1.3420   27.9260    7.5070 N   0  0  0  0  0  0  0  0  0  0  0  0
    0.1410   28.2420    8.0630 C   0  0  0  0  0  0  0  0  0  0  0  0
   -0.5050   27.3470    8.8230 O   0  0  0  0  0  0  0  0  0  0  0  0
   -0.4190   29.5310    7.8630 C   0  0  0  0  0  0  0  0  0  0  0  0
   -1.5770   30.1600    8.3360 N   0  0  0  0  0  0  0  0  0  0  0  0
   -0.2900   31.6810    7.1760 N   0  0  0  0  0  0  0  0  0  0  0  0
    0.3910   30.4710    7.1060 C   0  0  0  0  0  0  0  0  0  0  0  0
    1.5870   30.1710    6.5010 N   0  0  0  0  0  0  0  0  0  0  0  0
    3.2140   28.4990    6.1480 N   0  0  0  0  0  0  0  0  0  0  0  0
    3.9000   27.2550    6.2410 C   0  0  0  0  0  0  0  0  0  0  0  0
    4.6720   26.8960    5.1110 C   0  0  0  0  0  0  0  0  0  0  0  0
   -2.2120   32.2210    8.1150 H   0  0  0  0  0  0  0  0  0  0  0  0
    1.2010   26.2430    9.4270 H   0  0  0  0  0  0  0  0  0  0  0  0
    0.2160   25.5470    8.0380 H   0  0  0  0  0  0  0  0  0  0  0  0
   -1.7720   25.6070    9.8720 H   0  0  0  0  0  0  0  0  0  0  0  0
   -0.9460   23.5560    8.7400 H   0  0  0  0  0  0  0  0  0  0  0  0
    0.5040   23.4950    9.8260 H   0  0  0  0  0  0  0  0  0  0  0  0
   -2.4560   23.1860   10.6550 H   0  0  0  0  0  0  0  0  0  0  0  0
   -1.1920   21.8850   10.6170 H   0  0  0  0  0  0  0  0  0  0  0  0
   -1.6210   22.7580   12.9380 H   0  0  0  0  0  0  0  0  0  0  0  0
    0.0880   23.0140   12.3970 H   0  0  0  0  0  0  0  0  0  0  0  0
   -2.1830   25.1150   12.4600 H   0  0  0  0  0  0  0  0  0  0  0  0
   -0.7200   25.0550   13.5190 H   0  0  0  0  0  0  0  0  0  0  0  0
    0.7760   25.4470   11.6240 H   0  0  0  0  0  0  0  0  0  0  0  0
   -0.4920   26.7370   11.6590 H   0  0  0  0  0  0  0  0  0  0  0  0
    5.8920   25.4200    4.1620 H   0  0  0  0  0  0  0  0  0  0  0  0
    4.6350   24.6100    8.2460 H   0  0  0  0  0  0  0  0  0  0  0  0
    3.3490   26.6860    8.2710 H   0  0  0  0  0  0  0  0  0  0  0  0
   -0.0440   32.5690    6.7130 H   0  0  0  0  0  0  0  0  0  0  0  0
    3.6630   29.1860    5.4900 H   0  0  0  0  0  0  0  0  0  0  0  0
    4.7420   27.5700    4.2590 H   0  0  0  0  0  0  0  0  0  0  0  0
    6.1860   23.3300    6.0890 S   0  0  0  0  0  0  0  0  0  0  0  0
    6.7520   23.1220    4.7430 O   0  0  0  0  0  0  0  0  0  0  0  0
    7.1600   23.2870    7.1710 O   0  0  0  0  0  0  0  0  0  0  0  0
    5.1030   21.9900    6.2980 N   0  0  0  0  0  0  0  0  0  0  0  0
    4.8170   21.5550    5.3910 H   0  0  0  0  0  0  0  0  0  0  0  0
    3.9000   22.1740    7.1480 C   0  0  0  0  0  0  0  0  0  0  0  0
    3.2230   21.2790    7.0600 H   0  0  0  0  0  0  0  0  0  0  0  0
    4.1910   22.2780    8.2270 H   0  0  0  0  0  0  0  0  0  0  0  0
    3.2860   23.0630    6.8500 H   0  0  0  0  0  0  0  0  0  0  0  0
  1 14  2  0  0  0  0
  1 21  1  0  0  0  0
  1 22  1  0  0  0  0
  2 18  2  0  0  0  0
  2 19  1  0  0  0  0
  2 25  1  0  0  0  0
  3  4  1  0  0  0  0
  3 16  1  0  0  0  0
  3 26  1  0  0  0  0
  3 27  1  0  0  0  0
  4  5  1  0  0  0  0
  4  9  1  0  0  0  0
  4 28  1  0  0  0  0
  5  6  1  0  0  0  0
  5 29  1  0  0  0  0
  5 30  1  0  0  0  0
  6  7  1  0  0  0  0
  6 31  1  0  0  0  0
  6 32  1  0  0  0  0
  7  8  1  0  0  0  0
  7 33  1  0  0  0  0
  7 34  1  0  0  0  0
  8  9  1  0  0  0  0
  8 35  1  0  0  0  0
  8 36  1  0  0  0  0
  9 37  1  0  0  0  0
  9 38  1  0  0  0  0
 10 11  2  0  0  0  0
 10 24  1  0  0  0  0
 10 39  1  0  0  0  0
 11 12  1  0  0  0  0
 11 45  1  0  0  0  0
 12 13  2  0  0  0  0
 12 40  1  0  0  0  0
 13 23  1  0  0  0  0
 13 41  1  0  0  0  0
 14 15  1  0  0  0  0
 15 16  1  0  0  0  0
 15 17  2  0  0  0  0
 17 18  1  0  0  0  0
 17 20  1  0  0  0  0
 19 20  1  0  0  0  0
 19 42  1  0  0  0  0
 20 21  2  0  0  0  0
 22 23  1  0  0  0  0
 22 43  1  0  0  0  0
 23 24  2  0  0  0  0
 24 44  1  0  0  0  0
 45 46  2  0  0  0  0
 45 47  2  0  0  0  0
 45 48  1  0  0  0  0
 48 49  1  0  0  0  0
 48 50  1  0  0  0  0
 50 51  1  0  0  0  0
 50 52  1  0  0  0  0
 50 53  1  0  0  0  0
M  END
$$$$
