ejm_46
 OpenBabel02232411173D
Structure written by MMmdl.
 36 38  0  0  0  0  0  0  0  0999 V2000
   -1.5110   21.5000  -27.5800 C   0  0  0  0  0  0  0  0  0  0  0  0
   -1.0430   22.5800  -28.3320 C   0  0  0  0  0  0  0  0  0  0  0  0
   -1.8510   23.1160  -29.3380 C   0  0  0  0  0  0  0  0  0  0  0  0
   -3.1180   22.5940  -29.6250 C   0  0  0  0  0  0  0  0  0  0  0  0
   -3.5690   21.5200  -28.8410 C   0  0  0  0  0  0  0  0  0  0  0  0
   -2.7810   20.9710  -27.8290 C   0  0  0  0  0  0  0  0  0  0  0  0
   -5.1250   20.8670  -29.1380 Cl  0  0  0  0  0  0  0  0  0  0  0  0
   -3.9900   23.0810  -30.7470 C   0  0  0  0  0  0  0  0  0  0  0  0
   -4.3880   22.3490  -31.6260 O   0  0  0  0  0  0  0  0  0  0  0  0
   -4.3220   24.4470  -30.6490 N   0  0  0  0  0  0  0  0  0  0  0  0
   -5.1750   25.1790  -31.5220 C   0  0  0  0  0  0  0  0  0  0  0  0
   -5.8450   24.6120  -32.6170 C   0  0  0  0  0  0  0  0  0  0  0  0
   -6.7020   25.4310  -33.3680 C   0  0  0  0  0  0  0  0  0  0  0  0
   -6.9040   26.7470  -33.1050 N   0  0  0  0  0  0  0  0  0  0  0  0
   -6.2230   27.2930  -32.0350 C   0  0  0  0  0  0  0  0  0  0  0  0
   -5.3560   26.5470  -31.2260 C   0  0  0  0  0  0  0  0  0  0  0  0
   -6.4880   28.6740  -31.8130 N   0  0  0  0  0  0  0  0  0  0  0  0
   -5.7200   29.5410  -30.9940 C   0  0  0  0  0  0  0  0  0  0  0  0
   -4.7770   29.1220  -30.3470 O   0  0  0  0  0  0  0  0  0  0  0  0
   -6.1750   30.9650  -31.0080 C   0  0  0  0  0  0  0  0  0  0  0  0
   -5.8520   31.8660  -29.8170 C   0  0  0  0  0  0  0  0  0  0  0  0
   -5.1160   32.0610  -31.1180 C   0  0  0  0  0  0  0  0  0  0  0  0
   -4.0570   31.7790  -31.1860 H   0  0  0  0  0  0  0  0  0  0  0  0
   -1.2460   24.4590  -30.2150 Cl  0  0  0  0  0  0  0  0  0  0  0  0
   -7.1350   31.1520  -31.5200 H   0  0  0  0  0  0  0  0  0  0  0  0
   -5.3660   32.9380  -31.7330 H   0  0  0  0  0  0  0  0  0  0  0  0
   -0.8830   21.0730  -26.7910 H   0  0  0  0  0  0  0  0  0  0  0  0
   -0.0550   22.9990  -28.1170 H   0  0  0  0  0  0  0  0  0  0  0  0
   -3.1400   20.1400  -27.2200 H   0  0  0  0  0  0  0  0  0  0  0  0
   -3.9200   24.9830  -29.8570 H   0  0  0  0  0  0  0  0  0  0  0  0
   -5.7330   23.5580  -32.8830 H   0  0  0  0  0  0  0  0  0  0  0  0
   -7.2610   25.0180  -34.2240 H   0  0  0  0  0  0  0  0  0  0  0  0
   -4.8270   27.0140  -30.3880 H   0  0  0  0  0  0  0  0  0  0  0  0
   -7.3680   29.0460  -32.2360 H   0  0  0  0  0  0  0  0  0  0  0  0
   -6.6140   32.6050  -29.5280 H   0  0  0  0  0  0  0  0  0  0  0  0
   -5.3130   31.4550  -28.9540 H   0  0  0  0  0  0  0  0  0  0  0  0
  1  2  2  0  0  0  0
  1  6  1  0  0  0  0
  1 27  1  0  0  0  0
  2  3  1  0  0  0  0
  2 28  1  0  0  0  0
  3  4  2  0  0  0  0
  3 24  1  0  0  0  0
  4  5  1  0  0  0  0
  4  8  1  0  0  0  0
  5  6  2  0  0  0  0
  5  7  1  0  0  0  0
  6 29  1  0  0  0  0
  8  9  2  0  0  0  0
  8 10  1  0  0  0  0
 10 11  1  0  0  0  0
 10 30  1  0  0  0  0
 11 12  2  0  0  0  0
 11 16  1  0  0  0  0
 12 13  1  0  0  0  0
 12 31  1  0  0  0  0
 13 14  2  0  0  0  0
 13 32  1  0  0  0  0
 14 15  1  0  0  0  0
 15 16  2  0  0  0  0
 15 17  1  0  0  0  0
 16 33  1  0  0  0  0
 17 18  1  0  0  0  0
 17 34  1  0  0  0  0
 18 19  2  0  0  0  0
 18 20  1  0  0  0  0
 20 21  1  0  0  0  0
 20 22  1  0  0  0  0
 20 25  1  0  0  0  0
 21 22  1  0  0  0  0
 21 35  1  0  0  0  0
 21 36  1  0  0  0  0
 22 23  1  0  0  0  0
 22 26  1  0  0  0  0
M  END
$$$$
