CAT-4c
 OpenBabel02232411143D
Structure written by MMmdl.
 50 53  0  0  1  0  0  0  0  0999 V2000
   12.8190    5.4820   -3.5350 C   0  0  0  0  0  0  0  0  0  0  0  0
   13.7070    4.8060   -2.6010 O   0  0  0  0  0  0  0  0  0  0  0  0
   13.8490    3.4490   -2.7230 C   0  0  0  0  0  0  0  0  0  0  0  0
   14.6550    2.8770   -1.7120 C   0  0  0  0  0  0  0  0  0  0  0  0
   14.8710    1.5050   -1.7220 C   0  0  0  0  0  0  0  0  0  0  0  0
   14.3040    0.6950   -2.7260 C   0  0  0  0  0  0  0  0  0  0  0  0
   14.5410   -0.7600   -2.7610 C   0  0  0  0  0  0  0  0  0  0  0  0
   14.8090   -1.3840   -3.9980 C   0  0  0  0  0  0  0  0  0  0  0  0
   14.9700   -2.7630   -4.0680 C   0  0  0  0  0  0  0  0  0  0  0  0
   14.8900   -3.5480   -2.9130 C   0  0  0  0  0  0  0  0  0  0  0  0
   14.6420   -2.9400   -1.6830 C   0  0  0  0  0  0  0  0  0  0  0  0
   14.4430   -3.8120   -0.4580 C   0  0  1  0  0  0  0  0  0  0  0  0
   15.0240   -5.2130   -0.4320 C   0  0  0  0  0  0  0  0  0  0  0  0
   14.2640   -6.3090    0.0070 C   0  0  0  0  0  0  0  0  0  0  0  0
   14.8550   -7.5680    0.1380 C   0  0  0  0  0  0  0  0  0  0  0  0
   16.2090   -7.7480   -0.1680 C   0  0  0  0  0  0  0  0  0  0  0  0
   16.9740   -6.6530   -0.5880 C   0  0  0  0  0  0  0  0  0  0  0  0
   16.3860   -5.3910   -0.7210 C   0  0  0  0  0  0  0  0  0  0  0  0
   14.9810   -3.1010    0.7610 N   0  3  0  0  0  0  0  0  0  0  0  0
   13.9960   -2.9980    1.7350 C   0  0  0  0  0  0  0  0  0  0  0  0
   14.2640   -2.6590    3.0180 N   0  0  0  0  0  0  0  0  0  0  0  0
   12.7500   -3.3280    1.1980 N   0  0  0  0  0  0  0  0  0  0  0  0
   11.5050   -3.2680    1.9900 C   0  0  0  0  0  0  0  0  0  0  0  0
   12.8980   -3.8140   -0.1860 C   0  0  0  0  0  0  0  0  0  0  0  0
   11.9630   -4.0700   -0.8740 O   0  0  0  0  0  0  0  0  0  0  0  0
   14.4670   -1.5460   -1.6030 C   0  0  0  0  0  0  0  0  0  0  0  0
   13.5060    1.2860   -3.7200 C   0  0  0  0  0  0  0  0  0  0  0  0
   13.2720    2.6590   -3.7270 C   0  0  0  0  0  0  0  0  0  0  0  0
   12.8040    6.5130   -3.1130 H   0  0  0  0  0  0  0  0  0  0  0  0
   13.2610    5.4610   -4.5540 H   0  0  0  0  0  0  0  0  0  0  0  0
   11.8050    5.0280   -3.5080 H   0  0  0  0  0  0  0  0  0  0  0  0
   15.0980    3.5010   -0.9320 H   0  0  0  0  0  0  0  0  0  0  0  0
   15.4890    1.0490   -0.9410 H   0  0  0  0  0  0  0  0  0  0  0  0
   14.8950   -0.7840   -4.9120 H   0  0  0  0  0  0  0  0  0  0  0  0
   15.1470   -3.2420   -5.0290 H   0  0  0  0  0  0  0  0  0  0  0  0
   15.0120   -4.6260   -2.9640 H   0  0  0  0  0  0  0  0  0  0  0  0
   13.2100   -6.2010    0.2680 H   0  0  0  0  0  0  0  0  0  0  0  0
   14.2500   -8.4130    0.4850 H   0  0  0  0  0  0  0  0  0  0  0  0
   16.6610   -8.7400   -0.0630 H   0  0  0  0  0  0  0  0  0  0  0  0
   18.0490   -6.7620   -0.7480 H   0  0  0  0  0  0  0  0  0  0  0  0
   16.9880   -4.5300   -1.0220 H   0  0  0  0  0  0  0  0  0  0  0  0
   15.9930   -3.1750    1.0440 H   0  0  0  0  0  0  0  0  0  0  0  0
   13.5620   -2.1920    3.6380 H   0  0  0  0  0  0  0  0  0  0  0  0
   10.7030   -3.8570    1.4710 H   0  0  0  0  0  0  0  0  0  0  0  0
   11.6740   -3.7060    3.0120 H   0  0  0  0  0  0  0  0  0  0  0  0
   11.1790   -2.2010    2.1010 H   0  0  0  0  0  0  0  0  0  0  0  0
   14.2790   -1.0750   -0.6350 H   0  0  0  0  0  0  0  0  0  0  0  0
   13.0520    0.6670   -4.5030 H   0  0  0  0  0  0  0  0  0  0  0  0
   12.6490    3.0850   -4.5180 H   0  0  0  0  0  0  0  0  0  0  0  0
   15.2580   -2.4620    3.3100 H   0  0  0  0  0  0  0  0  0  0  0  0
  1  2  1  0  0  0  0
  1 29  1  0  0  0  0
  1 30  1  0  0  0  0
  1 31  1  0  0  0  0
  2  3  1  0  0  0  0
  3  4  2  0  0  0  0
  3 28  1  0  0  0  0
  4  5  1  0  0  0  0
  4 32  1  0  0  0  0
  5  6  2  0  0  0  0
  5 33  1  0  0  0  0
  6  7  1  0  0  0  0
  6 27  1  0  0  0  0
  7  8  2  0  0  0  0
  7 26  1  0  0  0  0
  8  9  1  0  0  0  0
  8 34  1  0  0  0  0
  9 10  2  0  0  0  0
  9 35  1  0  0  0  0
 10 11  1  0  0  0  0
 10 36  1  0  0  0  0
 11 26  2  0  0  0  0
 12 11  1  6  0  0  0
 12 13  1  0  0  0  0
 12 19  1  0  0  0  0
 12 24  1  0  0  0  0
 13 14  2  0  0  0  0
 13 18  1  0  0  0  0
 14 15  1  0  0  0  0
 14 37  1  0  0  0  0
 15 16  2  0  0  0  0
 15 38  1  0  0  0  0
 16 17  1  0  0  0  0
 16 39  1  0  0  0  0
 17 18  2  0  0  0  0
 17 40  1  0  0  0  0
 18 41  1  0  0  0  0
 19 20  2  0  0  0  0
 19 42  1  0  0  0  0
 20 21  1  0  0  0  0
 20 22  1  0  0  0  0
 21 43  1  0  0  0  0
 21 50  1  0  0  0  0
 22 23  1  0  0  0  0
 22 24  1  0  0  0  0
 23 44  1  0  0  0  0
 23 45  1  0  0  0  0
 23 46  1  0  0  0  0
 24 25  2  0  0  0  0
 26 47  1  0  0  0  0
 27 28  2  0  0  0  0
 27 48  1  0  0  0  0
 28 49  1  0  0  0  0
M  CHG  1  19   1
M  END
$$$$
