p38a_2m
 OpenBabel02232411163D
Structure written by MMmdl.
 50 54  0  0  0  0  0  0  0  0999 V2000
   36.3630   36.0240   15.8360 C   0  0  0  0  0  0  0  0  0  0  0  0
   34.5070   35.0560   21.3680 C   0  0  0  0  0  0  0  0  0  0  0  0
   35.6930   35.5600   16.9630 C   0  0  0  0  0  0  0  0  0  0  0  0
   34.0910   39.1830   23.8680 C   0  0  0  0  0  0  0  0  0  0  0  0
   34.7370   37.9230   21.5000 C   0  0  0  0  0  0  0  0  0  0  0  0
   35.1910   37.2350   20.3220 C   0  0  0  0  0  0  0  0  0  0  0  0
   37.6550   36.5260   16.0410 C   0  0  0  0  0  0  0  0  0  0  0  0
   38.2870   36.5410   17.2870 C   0  0  0  0  0  0  0  0  0  0  0  0
   37.5780   36.1020   18.4110 C   0  0  0  0  0  0  0  0  0  0  0  0
   34.2690   37.1900   22.6300 C   0  0  0  0  0  0  0  0  0  0  0  0
   34.7480   39.3390   21.6160 C   0  0  0  0  0  0  0  0  0  0  0  0
   35.1170   35.8850   20.2910 C   0  0  0  0  0  0  0  0  0  0  0  0
   36.2790   35.6140   18.2450 C   0  0  0  0  0  0  0  0  0  0  0  0
   34.4780   35.0380   16.8560 F   0  0  0  0  0  0  0  0  0  0  0  0
   35.5330   35.0270   19.2740 O   0  0  0  0  0  0  0  0  0  0  0  0
   34.4300   39.9780   22.7490 N   0  0  0  0  0  0  0  0  0  0  0  0
   34.3280   33.8620   21.3010 O   0  0  0  0  0  0  0  0  0  0  0  0
   34.1180   35.7920   22.5460 N   0  0  0  0  0  0  0  0  0  0  0  0
   33.9590   37.8110   23.8160 N   0  0  0  0  0  0  0  0  0  0  0  0
   33.9410   39.8690   25.0510 N   0  0  0  0  0  0  0  0  0  0  0  0
   35.9000   36.0220   14.8460 H   0  0  0  0  0  0  0  0  0  0  0  0
   35.6000   37.8320   19.5030 H   0  0  0  0  0  0  0  0  0  0  0  0
   39.3080   36.9170   17.3920 H   0  0  0  0  0  0  0  0  0  0  0  0
   38.0360   36.1660   19.4010 H   0  0  0  0  0  0  0  0  0  0  0  0
   35.0180   39.9580   20.7450 H   0  0  0  0  0  0  0  0  0  0  0  0
   33.9240   40.9100   25.0140 H   0  0  0  0  0  0  0  0  0  0  0  0
   38.2950   37.0470   14.9960 F   0  0  0  0  0  0  0  0  0  0  0  0
   33.7850   37.7600   28.2720 C   0  0  0  0  0  0  0  0  0  0  0  0
   34.3240   38.1970   26.9030 C   0  0  0  0  0  0  0  0  0  0  0  0
   33.4450   39.3360   26.3550 C   0  0  0  0  0  0  0  0  0  0  0  0
   31.9690   38.8900   26.2950 C   0  0  0  0  0  0  0  0  0  0  0  0
   31.5290   38.4170   27.6870 C   0  0  0  0  0  0  0  0  0  0  0  0
   32.3910   37.3790   28.2040 O   0  0  0  0  0  0  0  0  0  0  0  0
   33.9000   38.5710   29.0280 H   0  0  0  0  0  0  0  0  0  0  0  0
   34.2710   36.8150   28.6100 H   0  0  0  0  0  0  0  0  0  0  0  0
   34.3080   37.3240   26.2040 H   0  0  0  0  0  0  0  0  0  0  0  0
   35.3780   38.5460   27.0100 H   0  0  0  0  0  0  0  0  0  0  0  0
   33.5260   40.2240   27.0540 H   0  0  0  0  0  0  0  0  0  0  0  0
   31.3270   39.7410   25.9670 H   0  0  0  0  0  0  0  0  0  0  0  0
   31.8520   38.0560   25.5630 H   0  0  0  0  0  0  0  0  0  0  0  0
   31.5180   39.2630   28.4110 H   0  0  0  0  0  0  0  0  0  0  0  0
   30.5420   37.9010   27.6430 H   0  0  0  0  0  0  0  0  0  0  0  0
   33.5730   35.0650   23.7130 C   0  0  0  0  0  0  0  0  0  0  0  0
   32.4830   34.0170   23.5280 C   0  0  0  0  0  0  0  0  0  0  0  0
   32.1450   35.3430   24.1720 C   0  0  0  0  0  0  0  0  0  0  0  0
   34.3530   34.9070   24.4820 H   0  0  0  0  0  0  0  0  0  0  0  0
   32.0760   33.7980   22.5330 H   0  0  0  0  0  0  0  0  0  0  0  0
   32.5380   33.1170   24.1620 H   0  0  0  0  0  0  0  0  0  0  0  0
   31.5180   36.0610   23.6280 H   0  0  0  0  0  0  0  0  0  0  0  0
   31.9600   35.3880   25.2560 H   0  0  0  0  0  0  0  0  0  0  0  0
  1  3  2  0  0  0  0
  1  7  1  0  0  0  0
  1 21  1  0  0  0  0
  2 12  1  0  0  0  0
  2 17  2  0  0  0  0
  2 18  1  0  0  0  0
  3 13  1  0  0  0  0
  3 14  1  0  0  0  0
  4 16  2  0  0  0  0
  4 19  1  0  0  0  0
  4 20  1  0  0  0  0
  5  6  1  0  0  0  0
  5 10  1  0  0  0  0
  5 11  2  0  0  0  0
  6 12  2  0  0  0  0
  6 22  1  0  0  0  0
  7  8  2  0  0  0  0
  7 27  1  0  0  0  0
  8  9  1  0  0  0  0
  8 23  1  0  0  0  0
  9 13  2  0  0  0  0
  9 24  1  0  0  0  0
 10 18  1  0  0  0  0
 10 19  2  0  0  0  0
 11 16  1  0  0  0  0
 11 25  1  0  0  0  0
 12 15  1  0  0  0  0
 13 15  1  0  0  0  0
 18 43  1  0  0  0  0
 20 26  1  0  0  0  0
 20 30  1  0  0  0  0
 28 29  1  0  0  0  0
 28 33  1  0  0  0  0
 28 34  1  0  0  0  0
 28 35  1  0  0  0  0
 29 30  1  0  0  0  0
 29 36  1  0  0  0  0
 29 37  1  0  0  0  0
 30 31  1  0  0  0  0
 30 38  1  0  0  0  0
 31 32  1  0  0  0  0
 31 39  1  0  0  0  0
 31 40  1  0  0  0  0
 32 33  1  0  0  0  0
 32 41  1  0  0  0  0
 32 42  1  0  0  0  0
 43 44  1  0  0  0  0
 43 45  1  0  0  0  0
 43 46  1  0  0  0  0
 44 45  1  0  0  0  0
 44 47  1  0  0  0  0
 44 48  1  0  0  0  0
 45 49  1  0  0  0  0
 45 50  1  0  0  0  0
M  END
$$$$
