CAT-4o
                    3D
 Schrodinger Suite 2022-3.
 45 48  0  0  1  0  0  0  0  0999 V2000
   11.7440   -2.5480    1.3460 C   0  0  0  0  0  0  0  0  0  0  0  0
   13.0280   -2.9330    0.7240 N   0  0  0  0  0  0  0  0  0  0  0  0
   14.2420   -2.8100    1.4110 C   0  0  0  0  0  0  0  0  0  0  0  0
   14.3900   -2.6500    2.7540 N   0  0  0  0  0  0  0  0  0  0  0  0
   15.2970   -2.9570    0.5260 N   0  3  0  0  0  0  0  0  0  0  0  0
   14.8210   -3.3310   -0.8630 C   0  0  2  0  0  0  0  0  0  0  0  0
   15.2480   -4.7530   -1.1690 C   0  0  0  0  0  0  0  0  0  0  0  0
   16.5780   -5.1260   -0.9100 C   0  0  0  0  0  0  0  0  0  0  0  0
   16.9730   -6.4570   -1.0500 C   0  0  0  0  0  0  0  0  0  0  0  0
   16.0490   -7.4240   -1.4600 C   0  0  0  0  0  0  0  0  0  0  0  0
   14.7460   -7.0420   -1.7920 C   0  0  0  0  0  0  0  0  0  0  0  0
   14.3440   -5.7090   -1.6510 C   0  0  0  0  0  0  0  0  0  0  0  0
   15.2460   -2.2540   -1.8460 C   0  0  0  0  0  0  0  0  0  0  0  0
   15.7890   -2.5720   -3.0940 C   0  0  0  0  0  0  0  0  0  0  0  0
   16.0900   -1.5400   -3.9930 C   0  0  0  0  0  0  0  0  0  0  0  0
   15.8520   -0.2060   -3.6630 C   0  0  0  0  0  0  0  0  0  0  0  0
   15.3060    0.1190   -2.4070 C   0  0  0  0  0  0  0  0  0  0  0  0
   15.0120    1.5180   -2.0350 C   0  0  0  0  0  0  0  0  0  0  0  0
   14.2790    2.3570   -2.9040 C   0  0  0  0  0  0  0  0  0  0  0  0
   13.9360    3.6310   -2.5830 N   0  0  0  0  0  0  0  0  0  0  0  0
   14.3170    4.1300   -1.3830 C   0  0  0  0  0  0  0  0  0  0  0  0
   15.0650    3.3420   -0.4830 C   0  0  0  0  0  0  0  0  0  0  0  0
   15.4280    3.8590    0.6890 F   0  0  0  0  0  0  0  0  0  0  0  0
   15.4200    2.0300   -0.7930 C   0  0  0  0  0  0  0  0  0  0  0  0
   15.0140   -0.9110   -1.5040 C   0  0  0  0  0  0  0  0  0  0  0  0
   13.2630   -3.2050   -0.7000 C   0  0  0  0  0  0  0  0  0  0  0  0
   12.3740   -3.2770   -1.4870 O   0  0  0  0  0  0  0  0  0  0  0  0
   11.6480   -3.0330    2.3560 H   0  0  0  0  0  0  0  0  0  0  0  0
   11.7110   -1.4320    1.4640 H   0  0  0  0  0  0  0  0  0  0  0  0
   10.8950   -2.8910    0.6980 H   0  0  0  0  0  0  0  0  0  0  0  0
   15.3630   -2.5300    3.1470 H   0  0  0  0  0  0  0  0  0  0  0  0
   16.2670   -3.1550    0.8800 H   0  0  0  0  0  0  0  0  0  0  0  0
   17.3050   -4.3780   -0.5840 H   0  0  0  0  0  0  0  0  0  0  0  0
   18.0010   -6.7410   -0.8070 H   0  0  0  0  0  0  0  0  0  0  0  0
   16.3420   -8.4760   -1.5010 H   0  0  0  0  0  0  0  0  0  0  0  0
   14.0300   -7.7890   -2.1510 H   0  0  0  0  0  0  0  0  0  0  0  0
   13.3220   -5.4340   -1.9240 H   0  0  0  0  0  0  0  0  0  0  0  0
   15.9760   -3.6120   -3.3720 H   0  0  0  0  0  0  0  0  0  0  0  0
   16.5200   -1.7800   -4.9700 H   0  0  0  0  0  0  0  0  0  0  0  0
   16.0960    0.5840   -4.3820 H   0  0  0  0  0  0  0  0  0  0  0  0
   13.9440    1.9860   -3.8880 H   0  0  0  0  0  0  0  0  0  0  0  0
   14.0100    5.1610   -1.1420 H   0  0  0  0  0  0  0  0  0  0  0  0
   15.9820    1.4030   -0.0980 H   0  0  0  0  0  0  0  0  0  0  0  0
   14.6030   -0.6690   -0.5250 H   0  0  0  0  0  0  0  0  0  0  0  0
   13.6570   -2.1800    3.3380 H   0  0  0  0  0  0  0  0  0  0  0  0
  1  2  1  0  0  0  0
  1 28  1  0  0  0  0
  1 29  1  0  0  0  0
  1 30  1  0  0  0  0
  2  3  1  0  0  0  0
  2 26  1  0  0  0  0
  3  4  1  0  0  0  0
  3  5  2  0  0  0  0
  4 31  1  0  0  0  0
  4 45  1  0  0  0  0
  5  6  1  0  0  0  0
  5 32  1  0  0  0  0
  6  7  1  0  0  0  0
  6 13  1  0  0  0  0
  6 26  1  0  0  0  0
  7  8  2  0  0  0  0
  7 12  1  0  0  0  0
  8  9  1  0  0  0  0
  8 33  1  0  0  0  0
  9 10  2  0  0  0  0
  9 34  1  0  0  0  0
 10 11  1  0  0  0  0
 10 35  1  0  0  0  0
 11 12  2  0  0  0  0
 11 36  1  0  0  0  0
 12 37  1  0  0  0  0
 13 14  2  0  0  0  0
 13 25  1  0  0  0  0
 14 15  1  0  0  0  0
 14 38  1  0  0  0  0
 15 16  2  0  0  0  0
 15 39  1  0  0  0  0
 16 17  1  0  0  0  0
 16 40  1  0  0  0  0
 17 18  1  0  0  0  0
 17 25  2  0  0  0  0
 18 19  2  0  0  0  0
 18 24  1  0  0  0  0
 19 20  1  0  0  0  0
 19 41  1  0  0  0  0
 20 21  2  0  0  0  0
 21 22  1  0  0  0  0
 21 42  1  0  0  0  0
 22 23  1  0  0  0  0
 22 24  2  0  0  0  0
 24 43  1  0  0  0  0
 25 44  1  0  0  0  0
 26 27  2  0  0  0  0
M  CHG  1   5   1
M  END
$$$$
