p38a_2aa
 OpenBabel02232411163D
Structure written by MMmdl.
 43 45  0  0  0  0  0  0  0  0999 V2000
   36.3650   36.0680   15.7510 C   0  0  0  0  0  0  0  0  0  0  0  0
   34.5440   35.0470   21.2650 C   0  0  0  0  0  0  0  0  0  0  0  0
   35.7210   35.5740   16.8800 C   0  0  0  0  0  0  0  0  0  0  0  0
   33.9790   39.1940   23.6800 C   0  0  0  0  0  0  0  0  0  0  0  0
   33.2000   39.2170   26.0650 C   0  0  0  0  0  0  0  0  0  0  0  0
   34.6990   37.9210   21.3520 C   0  0  0  0  0  0  0  0  0  0  0  0
   35.1890   37.2230   20.1930 C   0  0  0  0  0  0  0  0  0  0  0  0
   37.6550   36.5810   15.9400 C   0  0  0  0  0  0  0  0  0  0  0  0
   38.3090   36.5830   17.1760 C   0  0  0  0  0  0  0  0  0  0  0  0
   37.6250   36.1180   18.3040 C   0  0  0  0  0  0  0  0  0  0  0  0
   34.2680   37.1860   22.4960 C   0  0  0  0  0  0  0  0  0  0  0  0
   34.6480   39.3380   21.4390 C   0  0  0  0  0  0  0  0  0  0  0  0
   35.1480   35.8710   20.1830 C   0  0  0  0  0  0  0  0  0  0  0  0
   36.3300   35.6150   18.1510 C   0  0  0  0  0  0  0  0  0  0  0  0
   33.7540   35.0400   23.6620 C   0  0  0  0  0  0  0  0  0  0  0  0
   34.5110   35.0390   16.7870 F   0  0  0  0  0  0  0  0  0  0  0  0
   35.6140   35.0090   19.1930 O   0  0  0  0  0  0  0  0  0  0  0  0
   34.2910   39.9860   22.5610 N   0  0  0  0  0  0  0  0  0  0  0  0
   34.3360   33.8550   21.2080 O   0  0  0  0  0  0  0  0  0  0  0  0
   34.1950   35.7850   22.4500 N   0  0  0  0  0  0  0  0  0  0  0  0
   33.9080   37.8200   23.6610 N   0  0  0  0  0  0  0  0  0  0  0  0
   33.8440   39.8620   24.8900 N   0  0  0  0  0  0  0  0  0  0  0  0
   35.8830   36.0790   14.7710 H   0  0  0  0  0  0  0  0  0  0  0  0
   34.0360   39.5880   27.3200 C   0  0  0  0  0  0  0  0  0  0  0  0
   35.5980   37.8140   19.3710 H   0  0  0  0  0  0  0  0  0  0  0  0
   39.3260   36.9720   17.2720 H   0  0  0  0  0  0  0  0  0  0  0  0
   38.0980   36.1760   19.2870 H   0  0  0  0  0  0  0  0  0  0  0  0
   34.8990   39.9520   20.5590 H   0  0  0  0  0  0  0  0  0  0  0  0
   34.3940   35.3240   24.5420 H   0  0  0  0  0  0  0  0  0  0  0  0
   32.6870   35.2900   23.9050 H   0  0  0  0  0  0  0  0  0  0  0  0
   33.8440   33.9350   23.4930 H   0  0  0  0  0  0  0  0  0  0  0  0
   33.7050   40.8910   24.8690 H   0  0  0  0  0  0  0  0  0  0  0  0
   38.2700   37.1250   14.8930 F   0  0  0  0  0  0  0  0  0  0  0  0
   31.7480   39.7130   26.2500 C   0  0  0  0  0  0  0  0  0  0  0  0
   31.0780   39.6040   24.9770 O   0  0  0  0  0  0  0  0  0  0  0  0
   30.2910   40.2250   25.0130 H   0  0  0  0  0  0  0  0  0  0  0  0
   31.2110   39.0630   26.9800 H   0  0  0  0  0  0  0  0  0  0  0  0
   31.7460   40.7830   26.5610 H   0  0  0  0  0  0  0  0  0  0  0  0
   33.7990   40.9300   27.7770 O   0  0  0  0  0  0  0  0  0  0  0  0
   33.7260   38.9640   28.1930 H   0  0  0  0  0  0  0  0  0  0  0  0
   35.1270   39.4770   27.1120 H   0  0  0  0  0  0  0  0  0  0  0  0
   33.7710   41.5540   26.9880 H   0  0  0  0  0  0  0  0  0  0  0  0
   33.2120   38.0930   25.9610 H   0  0  0  0  0  0  0  0  0  0  0  0
  1  3  2  0  0  0  0
  1  8  1  0  0  0  0
  1 23  1  0  0  0  0
  2 13  1  0  0  0  0
  2 19  2  0  0  0  0
  2 20  1  0  0  0  0
  3 14  1  0  0  0  0
  3 16  1  0  0  0  0
  4 18  2  0  0  0  0
  4 21  1  0  0  0  0
  4 22  1  0  0  0  0
  5 22  1  0  0  0  0
  5 24  1  0  0  0  0
  5 34  1  0  0  0  0
  5 43  1  0  0  0  0
  6  7  1  0  0  0  0
  6 11  1  0  0  0  0
  6 12  2  0  0  0  0
  7 13  2  0  0  0  0
  7 25  1  0  0  0  0
  8  9  2  0  0  0  0
  8 33  1  0  0  0  0
  9 10  1  0  0  0  0
  9 26  1  0  0  0  0
 10 14  2  0  0  0  0
 10 27  1  0  0  0  0
 11 20  1  0  0  0  0
 11 21  2  0  0  0  0
 12 18  1  0  0  0  0
 12 28  1  0  0  0  0
 13 17  1  0  0  0  0
 14 17  1  0  0  0  0
 15 20  1  0  0  0  0
 15 29  1  0  0  0  0
 15 30  1  0  0  0  0
 15 31  1  0  0  0  0
 22 32  1  0  0  0  0
 24 39  1  0  0  0  0
 24 40  1  0  0  0  0
 24 41  1  0  0  0  0
 34 35  1  0  0  0  0
 34 37  1  0  0  0  0
 34 38  1  0  0  0  0
 35 36  1  0  0  0  0
 39 42  1  0  0  0  0
M  END
$$$$
