18639-1
 OpenBabel02232411163D
Structure written by MMmdl.
 48 49  0  0  0  0  0  0  0  0999 V2000
   23.8260   12.6570   30.3380 C   0  0  0  0  0  0  0  0  0  0  0  0
   23.3770   11.2120   30.4470 C   0  0  0  0  0  0  0  0  0  0  0  0
   22.1290   11.3080   31.2470 O   0  0  0  0  0  0  0  0  0  0  0  0
   21.5030   10.1650   31.5960 C   0  0  0  0  0  0  0  0  0  0  0  0
   21.9940    8.9780   31.1640 N   0  0  0  0  0  0  0  0  0  0  0  0
   21.2720    7.8380   31.4830 C   0  0  0  0  0  0  0  0  0  0  0  0
   20.1130    7.8700   32.2510 C   0  0  0  0  0  0  0  0  0  0  0  0
   19.6160    9.1170   32.7140 C   0  0  0  0  0  0  0  0  0  0  0  0
   18.4710    9.1500   33.4680 N   0  0  0  0  0  0  0  0  0  0  0  0
   20.3150   10.3180   32.3720 C   0  0  0  0  0  0  0  0  0  0  0  0
   19.8850   11.6170   32.7170 C   0  0  0  0  0  0  0  0  0  0  0  0
   19.5790   12.7100   32.9570 N   0  0  0  0  0  0  0  0  0  0  0  0
   21.8510    6.6720   30.9270 N   0  0  0  0  0  0  0  0  0  0  0  0
   21.2550    5.3960   30.8540 C   0  0  0  0  0  0  0  0  0  0  0  0
   20.1660    5.1490   31.3290 O   0  0  0  0  0  0  0  0  0  0  0  0
   22.0680    4.3860   30.0520 C   0  0  0  0  0  0  0  0  0  0  0  0
   23.4270    4.0930   30.6160 C   0  0  0  0  0  0  0  0  0  0  0  0
   24.5380    4.9370   30.2990 C   0  0  0  0  0  0  0  0  0  0  0  0
   24.1970    5.9880   29.4590 O   0  0  0  0  0  0  0  0  0  0  0  0
   25.1760    7.0480   29.2750 C   0  0  0  0  0  0  0  0  0  0  0  0
   25.8130    4.6750   30.7770 C   0  0  0  0  0  0  0  0  0  0  0  0
   26.0240    3.5550   31.6070 C   0  0  0  0  0  0  0  0  0  0  0  0
   27.3730    3.2760   32.1100 N   0  3  0  0  0  0  0  0  0  0  0  0
   27.4950    2.4710   33.0200 O   0  5  0  0  0  0  0  0  0  0  0  0
   28.3210    3.8560   31.5940 O   0  0  0  0  0  0  0  0  0  0  0  0
   24.9390    2.7060   31.9250 C   0  0  0  0  0  0  0  0  0  0  0  0
   23.6480    2.9820   31.4140 C   0  0  0  0  0  0  0  0  0  0  0  0
   25.2690    1.6600   32.7340 O   0  0  0  0  0  0  0  0  0  0  0  0
   24.2580    0.6340   32.9630 C   0  0  0  0  0  0  0  0  0  0  0  0
   24.7510   12.6960   29.7090 H   0  0  0  0  0  0  0  0  0  0  0  0
   23.0450   13.2820   29.8440 H   0  0  0  0  0  0  0  0  0  0  0  0
   24.0540   13.0890   31.3370 H   0  0  0  0  0  0  0  0  0  0  0  0
   23.1100   10.7720   29.4600 H   0  0  0  0  0  0  0  0  0  0  0  0
   24.1020   10.5780   31.0050 H   0  0  0  0  0  0  0  0  0  0  0  0
   19.5670    6.9530   32.4870 H   0  0  0  0  0  0  0  0  0  0  0  0
   17.9670    8.2760   33.7120 H   0  0  0  0  0  0  0  0  0  0  0  0
   18.0580   10.0330   33.7690 H   0  0  0  0  0  0  0  0  0  0  0  0
   22.7710    6.8140   30.4410 H   0  0  0  0  0  0  0  0  0  0  0  0
   21.4790    3.4320   29.9880 H   0  0  0  0  0  0  0  0  0  0  0  0
   22.1900    4.7980   29.0100 H   0  0  0  0  0  0  0  0  0  0  0  0
   25.5120    7.4440   30.2560 H   0  0  0  0  0  0  0  0  0  0  0  0
   26.0160    6.6660   28.6580 H   0  0  0  0  0  0  0  0  0  0  0  0
   24.5730    7.8060   28.7210 H   0  0  0  0  0  0  0  0  0  0  0  0
   26.6630    5.3140   30.5110 H   0  0  0  0  0  0  0  0  0  0  0  0
   22.8200    2.3070   31.6480 H   0  0  0  0  0  0  0  0  0  0  0  0
   24.8320   -0.1080   33.5680 H   0  0  0  0  0  0  0  0  0  0  0  0
   23.4110    1.0550   33.5460 H   0  0  0  0  0  0  0  0  0  0  0  0
   23.9340    0.1950   31.9950 H   0  0  0  0  0  0  0  0  0  0  0  0
  1  2  1  0  0  0  0
  1 30  1  0  0  0  0
  1 31  1  0  0  0  0
  1 32  1  0  0  0  0
  2  3  1  0  0  0  0
  2 33  1  0  0  0  0
  2 34  1  0  0  0  0
  3  4  1  0  0  0  0
  4 10  2  0  0  0  0
  4  5  1  0  0  0  0
  5  6  2  0  0  0  0
  6  7  1  0  0  0  0
  6 13  1  0  0  0  0
  7  8  2  0  0  0  0
  7 35  1  0  0  0  0
  8  9  1  0  0  0  0
  8 10  1  0  0  0  0
  9 36  1  0  0  0  0
  9 37  1  0  0  0  0
 10 11  1  0  0  0  0
 11 12  3  0  0  0  0
 13 14  1  0  0  0  0
 13 38  1  0  0  0  0
 14 15  2  0  0  0  0
 14 16  1  0  0  0  0
 16 17  1  0  0  0  0
 16 39  1  0  0  0  0
 16 40  1  0  0  0  0
 17 27  2  0  0  0  0
 17 18  1  0  0  0  0
 18 19  1  0  0  0  0
 18 21  2  0  0  0  0
 19 20  1  0  0  0  0
 20 41  1  0  0  0  0
 20 42  1  0  0  0  0
 20 43  1  0  0  0  0
 21 22  1  0  0  0  0
 21 44  1  0  0  0  0
 22 23  1  0  0  0  0
 22 26  2  0  0  0  0
 23 24  1  0  0  0  0
 23 25  2  0  0  0  0
 26 27  1  0  0  0  0
 26 28  1  0  0  0  0
 27 45  1  0  0  0  0
 28 29  1  0  0  0  0
 29 46  1  0  0  0  0
 29 47  1  0  0  0  0
 29 48  1  0  0  0  0
M  CHG  2  23   1  24  -1
M  END
$$$$
