23486
 OpenBabel02232411173D
Structure written by MMmdl.
 60 63  0  0  0  0  0  0  0  0999 V2000
   42.4090   18.0030   12.6110 O   0  0  0  0  0  0  0  0  0  0  0  0
   41.2680   17.7020   12.9780 C   0  0  0  0  0  0  0  0  0  0  0  0
   40.2210   18.3460   12.7510 O   0  5  0  0  0  0  0  0  0  0  0  0
   41.0650   16.3910   13.7950 C   0  0  0  0  0  0  0  0  0  0  0  0
   42.4090   15.8140   13.7450 O   0  0  0  0  0  0  0  0  0  0  0  0
   42.6540   14.8940   14.7160 C   0  0  0  0  0  0  0  0  0  0  0  0
   42.0780   13.5640   14.6650 C   0  0  0  0  0  0  0  0  0  0  0  0
   40.9960   13.1990   13.3910 Cl  0  0  0  0  0  0  0  0  0  0  0  0
   42.4960   12.7110   15.6520 C   0  0  0  0  0  0  0  0  0  0  0  0
   42.0950   11.3600   15.9820 C   0  0  0  0  0  0  0  0  0  0  0  0
   42.8460   10.5440   16.8670 C   0  0  0  0  0  0  0  0  0  0  0  0
   42.3870    9.2790   17.2110 C   0  0  0  0  0  0  0  0  0  0  0  0
   41.1890    8.7560   16.6940 C   0  0  0  0  0  0  0  0  0  0  0  0
   40.4450    9.5440   15.8110 C   0  0  0  0  0  0  0  0  0  0  0  0
   39.1530    9.2110   15.2960 N   0  0  0  0  0  0  0  0  0  0  0  0
   38.5420    7.8770   15.4850 C   0  0  0  0  0  0  0  0  0  0  0  0
   37.0170    8.0020   15.2260 C   0  0  0  0  0  0  0  0  0  0  0  0
   36.6640    8.1310   13.7340 C   0  0  0  0  0  0  0  0  0  0  0  0
   37.2530    7.0540   12.8940 N   0  0  0  0  0  0  0  0  0  0  0  0
   36.2640    5.7600   12.4200 S   0  0  0  0  0  0  0  0  0  0  0  0
   37.0690    4.8500   11.6140 O   0  0  0  0  0  0  0  0  0  0  0  0
   35.1690    6.4000   11.6660 O   0  0  0  0  0  0  0  0  0  0  0  0
   35.5520    4.9190   13.7930 C   0  0  0  0  0  0  0  0  0  0  0  0
   36.2350    3.6170   14.0670 C   0  0  0  0  0  0  0  0  0  0  0  0
   37.1680    3.5180   15.1100 C   0  0  0  0  0  0  0  0  0  0  0  0
   37.8300    2.3100   15.3510 C   0  0  0  0  0  0  0  0  0  0  0  0
   37.5560    1.1880   14.5650 C   0  0  0  0  0  0  0  0  0  0  0  0
   36.6040    1.2740   13.5430 C   0  0  0  0  0  0  0  0  0  0  0  0
   35.9400    2.4780   13.2970 C   0  0  0  0  0  0  0  0  0  0  0  0
   38.7150    6.8730   13.1140 C   0  0  0  0  0  0  0  0  0  0  0  0
   39.1220    6.7550   14.5890 C   0  0  0  0  0  0  0  0  0  0  0  0
   40.9110   10.8320   15.4550 C   0  0  0  0  0  0  0  0  0  0  0  0
   43.6640   13.5770   16.6390 S   0  0  0  0  0  0  0  0  0  0  0  0
   43.5500   15.0740   15.7340 C   0  0  0  0  0  0  0  0  0  0  0  0
   44.3550   16.3110   16.1530 C   0  0  0  0  0  0  0  0  0  0  0  0
   45.0010   16.1840   17.2180 O   0  0  0  0  0  0  0  0  0  0  0  0
   44.3420   17.3040   15.4260 O   0  5  0  0  0  0  0  0  0  0  0  0
   40.3540   15.7020   13.2950 H   0  0  0  0  0  0  0  0  0  0  0  0
   40.7480   16.5870   14.8390 H   0  0  0  0  0  0  0  0  0  0  0  0
   43.7920   10.8880   17.2910 H   0  0  0  0  0  0  0  0  0  0  0  0
   42.9590    8.6560   17.9050 H   0  0  0  0  0  0  0  0  0  0  0  0
   40.8660    7.7600   16.9860 H   0  0  0  0  0  0  0  0  0  0  0  0
   38.9770    9.5780   14.3470 H   0  0  0  0  0  0  0  0  0  0  0  0
   38.6840    7.5660   16.5570 H   0  0  0  0  0  0  0  0  0  0  0  0
   36.5310    7.1030   15.6740 H   0  0  0  0  0  0  0  0  0  0  0  0
   36.6210    8.8930   15.7720 H   0  0  0  0  0  0  0  0  0  0  0  0
   35.5520    8.1320   13.6120 H   0  0  0  0  0  0  0  0  0  0  0  0
   37.0680    9.1070   13.3410 H   0  0  0  0  0  0  0  0  0  0  0  0
   35.5640    5.5530   14.7250 H   0  0  0  0  0  0  0  0  0  0  0  0
   34.4560    4.7290   13.6030 H   0  0  0  0  0  0  0  0  0  0  0  0
   37.3770    4.3770   15.7570 H   0  0  0  0  0  0  0  0  0  0  0  0
   38.5620    2.2480   16.1630 H   0  0  0  0  0  0  0  0  0  0  0  0
   38.0770    0.2460   14.7540 H   0  0  0  0  0  0  0  0  0  0  0  0
   36.3750    0.3880   12.9420 H   0  0  0  0  0  0  0  0  0  0  0  0
   35.1810    2.5180   12.5090 H   0  0  0  0  0  0  0  0  0  0  0  0
   39.0730    5.9650   12.5650 H   0  0  0  0  0  0  0  0  0  0  0  0
   39.2150    7.7850   12.6880 H   0  0  0  0  0  0  0  0  0  0  0  0
   40.2380    6.7650   14.6560 H   0  0  0  0  0  0  0  0  0  0  0  0
   38.7780    5.7810   15.0040 H   0  0  0  0  0  0  0  0  0  0  0  0
   40.2880   11.4060   14.7750 H   0  0  0  0  0  0  0  0  0  0  0  0
  1  2  2  0  0  0  0
  2  3  1  0  0  0  0
  2  4  1  0  0  0  0
  4  5  1  0  0  0  0
  4 38  1  0  0  0  0
  4 39  1  0  0  0  0
  5  6  1  0  0  0  0
  6 34  2  0  0  0  0
  6  7  1  0  0  0  0
  7  8  1  0  0  0  0
  7  9  2  0  0  0  0
  9 10  1  0  0  0  0
  9 33  1  0  0  0  0
 10 32  2  0  0  0  0
 10 11  1  0  0  0  0
 11 12  2  0  0  0  0
 11 40  1  0  0  0  0
 12 13  1  0  0  0  0
 12 41  1  0  0  0  0
 13 14  2  0  0  0  0
 13 42  1  0  0  0  0
 14 15  1  0  0  0  0
 14 32  1  0  0  0  0
 15 16  1  0  0  0  0
 15 43  1  0  0  0  0
 16 31  1  0  0  0  0
 16 17  1  0  0  0  0
 16 44  1  0  0  0  0
 17 18  1  0  0  0  0
 17 45  1  0  0  0  0
 17 46  1  0  0  0  0
 18 19  1  0  0  0  0
 18 47  1  0  0  0  0
 18 48  1  0  0  0  0
 19 20  1  0  0  0  0
 19 30  1  0  0  0  0
 20 21  2  0  0  0  0
 20 22  2  0  0  0  0
 20 23  1  0  0  0  0
 23 24  1  0  0  0  0
 23 49  1  0  0  0  0
 23 50  1  0  0  0  0
 24 29  2  0  0  0  0
 24 25  1  0  0  0  0
 25 26  2  0  0  0  0
 25 51  1  0  0  0  0
 26 27  1  0  0  0  0
 26 52  1  0  0  0  0
 27 28  2  0  0  0  0
 27 53  1  0  0  0  0
 28 29  1  0  0  0  0
 28 54  1  0  0  0  0
 29 55  1  0  0  0  0
 30 31  1  0  0  0  0
 30 56  1  0  0  0  0
 30 57  1  0  0  0  0
 31 58  1  0  0  0  0
 31 59  1  0  0  0  0
 32 60  1  0  0  0  0
 33 34  1  0  0  0  0
 34 35  1  0  0  0  0
 35 36  2  0  0  0  0
 35 37  1  0  0  0  0
M  CHG  2   3  -1  37  -1
M  END
$$$$
