p38a_3flw
 OpenBabel02232411163D
Structure written by MMmdl.
 49 51  0  0  0  0  0  0  0  0999 V2000
   36.3630   36.0640   15.7850 C   0  0  0  0  0  0  0  0  0  0  0  0
   37.6570   36.5650   15.9770 C   0  0  0  0  0  0  0  0  0  0  0  0
   32.8970   39.9140   27.4120 C   0  0  0  0  0  0  0  0  0  0  0  0
   34.2600   40.4640   27.8560 C   0  0  0  0  0  0  0  0  0  0  0  0
   31.6040   38.2680   25.9720 C   0  0  0  0  0  0  0  0  0  0  0  0
   33.9720   34.8860   23.7750 C   0  0  0  0  0  0  0  0  0  0  0  0
   34.4910   35.0690   16.8230 F   0  0  0  0  0  0  0  0  0  0  0  0
   35.7050   35.5940   16.9170 C   0  0  0  0  0  0  0  0  0  0  0  0
   38.2850   37.0880   14.9270 F   0  0  0  0  0  0  0  0  0  0  0  0
   38.3020   36.5770   17.2170 C   0  0  0  0  0  0  0  0  0  0  0  0
   37.6050   36.1350   18.3470 C   0  0  0  0  0  0  0  0  0  0  0  0
   36.3060   35.6430   18.1920 C   0  0  0  0  0  0  0  0  0  0  0  0
   35.5770   35.0370   19.2210 O   0  0  0  0  0  0  0  0  0  0  0  0
   35.1700   35.8660   20.2640 C   0  0  0  0  0  0  0  0  0  0  0  0
   35.2110   37.2160   20.3280 C   0  0  0  0  0  0  0  0  0  0  0  0
   34.7400   37.8640   21.5240 C   0  0  0  0  0  0  0  0  0  0  0  0
   34.6600   39.2750   21.6650 C   0  0  0  0  0  0  0  0  0  0  0  0
   34.2390   39.8780   22.7870 N   0  0  0  0  0  0  0  0  0  0  0  0
   34.6120   34.9960   21.3360 C   0  0  0  0  0  0  0  0  0  0  0  0
   34.4000   33.8080   21.2370 O   0  0  0  0  0  0  0  0  0  0  0  0
   34.3200   35.6820   22.5650 N   0  0  0  0  0  0  0  0  0  0  0  0
   34.3340   37.0840   22.6480 C   0  0  0  0  0  0  0  0  0  0  0  0
   33.9220   37.6650   23.8210 N   0  0  0  0  0  0  0  0  0  0  0  0
   33.8770   39.0450   23.8670 C   0  0  0  0  0  0  0  0  0  0  0  0
   33.4600   39.6620   25.0230 N   0  0  0  0  0  0  0  0  0  0  0  0
   32.9820   38.9200   26.2340 C   0  0  0  0  0  0  0  0  0  0  0  0
   31.2100   37.3030   27.1000 C   0  0  0  0  0  0  0  0  0  0  0  0
   30.4360   36.2260   26.5270 O   0  0  0  0  0  0  0  0  0  0  0  0
   34.1220   41.2380   29.0630 O   0  0  0  0  0  0  0  0  0  0  0  0
   35.8880   36.0660   14.8010 H   0  0  0  0  0  0  0  0  0  0  0  0
   32.4250   39.3900   28.2800 H   0  0  0  0  0  0  0  0  0  0  0  0
   32.2410   40.7700   27.1290 H   0  0  0  0  0  0  0  0  0  0  0  0
   34.9590   39.6480   28.1500 H   0  0  0  0  0  0  0  0  0  0  0  0
   34.6980   41.1240   27.0740 H   0  0  0  0  0  0  0  0  0  0  0  0
   30.8270   39.0570   25.8520 H   0  0  0  0  0  0  0  0  0  0  0  0
   31.6490   37.6740   25.0240 H   0  0  0  0  0  0  0  0  0  0  0  0
   32.9260   35.1220   24.1070 H   0  0  0  0  0  0  0  0  0  0  0  0
   34.0550   33.7900   23.5560 H   0  0  0  0  0  0  0  0  0  0  0  0
   34.6760   35.1470   24.6120 H   0  0  0  0  0  0  0  0  0  0  0  0
   39.3230   36.9550   17.3140 H   0  0  0  0  0  0  0  0  0  0  0  0
   38.0740   36.2000   19.3320 H   0  0  0  0  0  0  0  0  0  0  0  0
   35.5930   37.8430   19.5190 H   0  0  0  0  0  0  0  0  0  0  0  0
   34.9420   39.9290   20.8210 H   0  0  0  0  0  0  0  0  0  0  0  0
   33.3840   40.6970   25.0550 H   0  0  0  0  0  0  0  0  0  0  0  0
   33.7400   38.1220   26.4720 H   0  0  0  0  0  0  0  0  0  0  0  0
   32.1050   36.7980   27.5350 H   0  0  0  0  0  0  0  0  0  0  0  0
   30.6130   37.8150   27.8850 H   0  0  0  0  0  0  0  0  0  0  0  0
   29.4920   36.2830   26.9160 H   0  0  0  0  0  0  0  0  0  0  0  0
   33.3860   41.9150   28.9190 H   0  0  0  0  0  0  0  0  0  0  0  0
  1  2  2  0  0  0  0
  1  8  1  0  0  0  0
  1 30  1  0  0  0  0
  2  9  1  0  0  0  0
  2 10  1  0  0  0  0
  3  4  1  0  0  0  0
  3 26  1  0  0  0  0
  3 31  1  0  0  0  0
  3 32  1  0  0  0  0
  4 29  1  0  0  0  0
  4 33  1  0  0  0  0
  4 34  1  0  0  0  0
  5 26  1  0  0  0  0
  5 27  1  0  0  0  0
  5 35  1  0  0  0  0
  5 36  1  0  0  0  0
  6 21  1  0  0  0  0
  6 37  1  0  0  0  0
  6 38  1  0  0  0  0
  6 39  1  0  0  0  0
  7  8  1  0  0  0  0
  8 12  2  0  0  0  0
 10 11  2  0  0  0  0
 10 40  1  0  0  0  0
 11 12  1  0  0  0  0
 11 41  1  0  0  0  0
 12 13  1  0  0  0  0
 13 14  1  0  0  0  0
 14 15  2  0  0  0  0
 14 19  1  0  0  0  0
 15 16  1  0  0  0  0
 15 42  1  0  0  0  0
 16 17  2  0  0  0  0
 16 22  1  0  0  0  0
 17 18  1  0  0  0  0
 17 43  1  0  0  0  0
 18 24  2  0  0  0  0
 19 20  2  0  0  0  0
 19 21  1  0  0  0  0
 21 22  1  0  0  0  0
 22 23  2  0  0  0  0
 23 24  1  0  0  0  0
 24 25  1  0  0  0  0
 25 26  1  0  0  0  0
 25 44  1  0  0  0  0
 26 45  1  0  0  0  0
 27 28  1  0  0  0  0
 27 46  1  0  0  0  0
 27 47  1  0  0  0  0
 28 48  1  0  0  0  0
 29 49  1  0  0  0  0
M  END
$$$$
