18638-1
 OpenBabel02232411163D
Structure written by MMmdl.
 52 53  0  0  0  0  0  0  0  0999 V2000
   24.0380   12.4350   30.3150 C   0  0  0  0  0  0  0  0  0  0  0  0
   23.5740   10.9960   30.4430 C   0  0  0  0  0  0  0  0  0  0  0  0
   22.3130   11.1180   31.2200 O   0  0  0  0  0  0  0  0  0  0  0  0
   21.6660    9.9900   31.5790 C   0  0  0  0  0  0  0  0  0  0  0  0
   22.1360    8.7890   31.1600 N   0  0  0  0  0  0  0  0  0  0  0  0
   21.3950    7.6670   31.4960 C   0  0  0  0  0  0  0  0  0  0  0  0
   20.2360    7.7320   32.2640 C   0  0  0  0  0  0  0  0  0  0  0  0
   19.7550    8.9930   32.7060 C   0  0  0  0  0  0  0  0  0  0  0  0
   18.5960    9.0580   33.4370 N   0  0  0  0  0  0  0  0  0  0  0  0
   20.4840   10.1750   32.3580 C   0  0  0  0  0  0  0  0  0  0  0  0
   20.0860   11.4820   32.7090 C   0  0  0  0  0  0  0  0  0  0  0  0
   19.8040   12.5780   32.9630 N   0  0  0  0  0  0  0  0  0  0  0  0
   21.9390    6.4750   30.9540 N   0  0  0  0  0  0  0  0  0  0  0  0
   21.2620    5.2390   30.8710 C   0  0  0  0  0  0  0  0  0  0  0  0
   20.1850    5.0430   31.3940 O   0  0  0  0  0  0  0  0  0  0  0  0
   21.9470    4.2090   29.9880 C   0  0  0  0  0  0  0  0  0  0  0  0
   23.3100    3.7650   30.4300 C   0  0  0  0  0  0  0  0  0  0  0  0
   24.4710    4.4630   29.9910 C   0  0  0  0  0  0  0  0  0  0  0  0
   24.1680    5.6010   29.2510 O   0  0  0  0  0  0  0  0  0  0  0  0
   25.2190    6.5950   29.0990 C   0  0  0  0  0  0  0  0  0  0  0  0
   25.7520    3.9770   30.2380 C   0  0  0  0  0  0  0  0  0  0  0  0
   25.9330    2.7980   30.9820 C   0  0  0  0  0  0  0  0  0  0  0  0
   27.5660    2.1680   31.1410 S   0  0  0  0  0  0  0  0  0  0  0  0
   28.5490    3.2360   30.8290 O   0  0  0  0  0  0  0  0  0  0  0  0
   27.7760    1.6520   32.5120 O   0  0  0  0  0  0  0  0  0  0  0  0
   27.6400    0.9010   29.9600 C   0  0  0  0  0  0  0  0  0  0  0  0
   24.7930    2.1570   31.4890 C   0  0  0  0  0  0  0  0  0  0  0  0
   23.4880    2.6210   31.1940 C   0  0  0  0  0  0  0  0  0  0  0  0
   25.0390    1.0850   32.3130 O   0  0  0  0  0  0  0  0  0  0  0  0
   23.9620    0.1340   32.5430 C   0  0  0  0  0  0  0  0  0  0  0  0
   24.9590   12.4580   29.6800 H   0  0  0  0  0  0  0  0  0  0  0  0
   23.2600   13.0630   29.8190 H   0  0  0  0  0  0  0  0  0  0  0  0
   24.2760   12.8760   31.3080 H   0  0  0  0  0  0  0  0  0  0  0  0
   23.3210   10.5400   29.4600 H   0  0  0  0  0  0  0  0  0  0  0  0
   24.2840   10.3670   31.0270 H   0  0  0  0  0  0  0  0  0  0  0  0
   19.6740    6.8290   32.5160 H   0  0  0  0  0  0  0  0  0  0  0  0
   18.0840    8.1960   33.7070 H   0  0  0  0  0  0  0  0  0  0  0  0
   18.2040    9.9510   33.7350 H   0  0  0  0  0  0  0  0  0  0  0  0
   22.8530    6.5690   30.4540 H   0  0  0  0  0  0  0  0  0  0  0  0
   21.2810    3.3080   29.9180 H   0  0  0  0  0  0  0  0  0  0  0  0
   22.0350    4.6640   28.9600 H   0  0  0  0  0  0  0  0  0  0  0  0
   24.6410    7.4710   28.7220 H   0  0  0  0  0  0  0  0  0  0  0  0
   25.6930    6.8170   30.0780 H   0  0  0  0  0  0  0  0  0  0  0  0
   25.9520    6.2340   28.3480 H   0  0  0  0  0  0  0  0  0  0  0  0
   26.6200    4.5080   29.8260 H   0  0  0  0  0  0  0  0  0  0  0  0
   27.5080    1.2920   28.9150 H   0  0  0  0  0  0  0  0  0  0  0  0
   28.6200    0.3560   29.9700 H   0  0  0  0  0  0  0  0  0  0  0  0
   26.8400    0.1280   30.1040 H   0  0  0  0  0  0  0  0  0  0  0  0
   22.6190    2.0680   31.5540 H   0  0  0  0  0  0  0  0  0  0  0  0
   23.5980   -0.2580   31.5710 H   0  0  0  0  0  0  0  0  0  0  0  0
   23.1550    0.5980   33.1490 H   0  0  0  0  0  0  0  0  0  0  0  0
   24.4870   -0.6630   33.1230 H   0  0  0  0  0  0  0  0  0  0  0  0
  1  2  1  0  0  0  0
  1 31  1  0  0  0  0
  1 32  1  0  0  0  0
  1 33  1  0  0  0  0
  2  3  1  0  0  0  0
  2 34  1  0  0  0  0
  2 35  1  0  0  0  0
  3  4  1  0  0  0  0
  4 10  2  0  0  0  0
  4  5  1  0  0  0  0
  5  6  2  0  0  0  0
  6  7  1  0  0  0  0
  6 13  1  0  0  0  0
  7  8  2  0  0  0  0
  7 36  1  0  0  0  0
  8  9  1  0  0  0  0
  8 10  1  0  0  0  0
  9 37  1  0  0  0  0
  9 38  1  0  0  0  0
 10 11  1  0  0  0  0
 11 12  3  0  0  0  0
 13 14  1  0  0  0  0
 13 39  1  0  0  0  0
 14 15  2  0  0  0  0
 14 16  1  0  0  0  0
 16 17  1  0  0  0  0
 16 40  1  0  0  0  0
 16 41  1  0  0  0  0
 17 28  2  0  0  0  0
 17 18  1  0  0  0  0
 18 19  1  0  0  0  0
 18 21  2  0  0  0  0
 19 20  1  0  0  0  0
 20 42  1  0  0  0  0
 20 43  1  0  0  0  0
 20 44  1  0  0  0  0
 21 22  1  0  0  0  0
 21 45  1  0  0  0  0
 22 23  1  0  0  0  0
 22 27  2  0  0  0  0
 23 24  2  0  0  0  0
 23 25  2  0  0  0  0
 23 26  1  0  0  0  0
 26 46  1  0  0  0  0
 26 47  1  0  0  0  0
 26 48  1  0  0  0  0
 27 28  1  0  0  0  0
 27 29  1  0  0  0  0
 28 49  1  0  0  0  0
 29 30  1  0  0  0  0
 30 50  1  0  0  0  0
 30 51  1  0  0  0  0
 30 52  1  0  0  0  0
M  END
$$$$
