33
 OpenBabel02232411163D
Structure written by MMmdl.
 38 40  0  0  0  0  0  0  0  0999 V2000
    3.7990  -50.1790    5.9470 O   0  0  0  0  0  0  0  0  0  0  0  0
    3.0880  -49.3170    6.5000 C   0  0  0  0  0  0  0  0  0  0  0  0
    3.4780  -48.3280    7.1340 O   0  5  0  0  0  0  0  0  0  0  0  0
    1.5700  -49.5580    6.3830 C   0  0  0  0  0  0  0  0  0  0  0  0
   -0.3460  -50.8050    6.5210 C   0  0  0  0  0  0  0  0  0  0  0  0
   -1.3150  -51.7990    6.7440 C   0  0  0  0  0  0  0  0  0  0  0  0
   -2.6280  -51.4940    6.4190 C   0  0  0  0  0  0  0  0  0  0  0  0
   -2.9780  -50.2330    5.8810 C   0  0  0  0  0  0  0  0  0  0  0  0
   -2.0260  -49.2470    5.6610 C   0  0  0  0  0  0  0  0  0  0  0  0
   -0.6850  -49.5110    5.9840 C   0  0  0  0  0  0  0  0  0  0  0  0
    0.5410  -48.7440    5.9210 C   0  0  0  0  0  0  0  0  0  0  0  0
    0.6090  -47.3340    5.4530 C   0  0  0  0  0  0  0  0  0  0  0  0
    0.5550  -46.3190    6.6090 C   0  0  0  0  0  0  0  0  0  0  0  0
   -0.7580  -46.3550    7.3870 C   0  0  0  0  0  0  0  0  0  0  0  0
   -1.7390  -45.7680    6.4510 O   0  0  0  0  0  0  0  0  0  0  0  0
   -3.0010  -45.5450    6.9040 C   0  0  0  0  0  0  0  0  0  0  0  0
   -3.5250  -46.0280    8.1180 C   0  0  0  0  0  0  0  0  0  0  0  0
   -4.8420  -45.7210    8.4590 C   0  0  0  0  0  0  0  0  0  0  0  0
   -5.6030  -44.9350    7.5930 C   0  0  0  0  0  0  0  0  0  0  0  0
   -5.0960  -44.4480    6.3810 C   0  0  0  0  0  0  0  0  0  0  0  0
   -3.7910  -44.7610    6.0260 C   0  0  0  0  0  0  0  0  0  0  0  0
   -1.0520  -52.7720    7.1600 H   0  0  0  0  0  0  0  0  0  0  0  0
   -3.4150  -52.2330    6.5810 H   0  0  0  0  0  0  0  0  0  0  0  0
   -4.0250  -50.0440    5.6390 H   0  0  0  0  0  0  0  0  0  0  0  0
   -2.3240  -48.2820    5.2480 H   0  0  0  0  0  0  0  0  0  0  0  0
   -0.2670  -47.1350    4.7810 H   0  0  0  0  0  0  0  0  0  0  0  0
    1.5470  -47.1530    4.8760 H   0  0  0  0  0  0  0  0  0  0  0  0
    0.6800  -45.2910    6.1960 H   0  0  0  0  0  0  0  0  0  0  0  0
    1.3820  -46.5370    7.3290 H   0  0  0  0  0  0  0  0  0  0  0  0
   -0.7330  -45.6950    8.2790 H   0  0  0  0  0  0  0  0  0  0  0  0
   -1.1020  -47.3870    7.6090 H   0  0  0  0  0  0  0  0  0  0  0  0
   -2.9440  -46.6540    8.7930 H   0  0  0  0  0  0  0  0  0  0  0  0
   -3.3790  -44.4120    5.0810 H   0  0  0  0  0  0  0  0  0  0  0  0
    1.0390  -50.8080    6.7560 N   0  0  0  0  0  0  0  0  0  0  0  0
    1.5420  -51.6090    7.1200 H   0  0  0  0  0  0  0  0  0  0  0  0
   -5.7210  -43.8420    5.7210 H   0  0  0  0  0  0  0  0  0  0  0  0
   -7.2390  -44.5760    8.0200 Cl  0  0  0  0  0  0  0  0  0  0  0  0
   -5.2750  -46.0990    9.3900 H   0  0  0  0  0  0  0  0  0  0  0  0
  1  2  2  0  0  0  0
  2  3  1  0  0  0  0
  2  4  1  0  0  0  0
  4 11  2  0  0  0  0
  4 34  1  0  0  0  0
  5  6  2  0  0  0  0
  5 10  1  0  0  0  0
  5 34  1  0  0  0  0
  6  7  1  0  0  0  0
  6 22  1  0  0  0  0
  7  8  2  0  0  0  0
  7 23  1  0  0  0  0
  8  9  1  0  0  0  0
  8 24  1  0  0  0  0
  9 10  2  0  0  0  0
  9 25  1  0  0  0  0
 10 11  1  0  0  0  0
 11 12  1  0  0  0  0
 12 26  1  0  0  0  0
 12 27  1  0  0  0  0
 12 13  1  0  0  0  0
 13 14  1  0  0  0  0
 13 28  1  0  0  0  0
 13 29  1  0  0  0  0
 14 15  1  0  0  0  0
 14 30  1  0  0  0  0
 14 31  1  0  0  0  0
 15 16  1  0  0  0  0
 16 17  2  0  0  0  0
 16 21  1  0  0  0  0
 17 18  1  0  0  0  0
 17 32  1  0  0  0  0
 18 19  2  0  0  0  0
 18 38  1  0  0  0  0
 19 20  1  0  0  0  0
 19 37  1  0  0  0  0
 20 21  2  0  0  0  0
 20 36  1  0  0  0  0
 21 33  1  0  0  0  0
 34 35  1  0  0  0  0
M  CHG  1   3  -1
M  END
$$$$
