p38a_3flw
 OpenBabel02232411163D
Structure written by MMmdl.
 49 51  0  0  0  0  0  0  0  0999 V2000
   38.2420   36.5160   17.2310 C   0  0  0  0  0  0  0  0  0  0  0  0
   37.5920   36.6770   16.0000 C   0  0  0  0  0  0  0  0  0  0  0  0
   31.6660   38.1750   26.2050 C   0  0  0  0  0  0  0  0  0  0  0  0
   31.0730   37.9520   27.6070 C   0  0  0  0  0  0  0  0  0  0  0  0
   34.0670   38.8110   26.8280 C   0  0  0  0  0  0  0  0  0  0  0  0
   33.4880   35.0250   23.6310 C   0  0  0  0  0  0  0  0  0  0  0  0
   37.9880   35.9400   19.5000 F   0  0  0  0  0  0  0  0  0  0  0  0
   37.4530   36.0870   18.2960 C   0  0  0  0  0  0  0  0  0  0  0  0
   38.2990   37.1460   14.9740 F   0  0  0  0  0  0  0  0  0  0  0  0
   36.2350   36.4090   15.8040 C   0  0  0  0  0  0  0  0  0  0  0  0
   35.4670   35.9690   16.8870 C   0  0  0  0  0  0  0  0  0  0  0  0
   36.0820   35.7970   18.1300 C   0  0  0  0  0  0  0  0  0  0  0  0
   35.3680   35.1750   19.1630 O   0  0  0  0  0  0  0  0  0  0  0  0
   34.9290   35.9950   20.1990 C   0  0  0  0  0  0  0  0  0  0  0  0
   34.9260   37.3460   20.2480 C   0  0  0  0  0  0  0  0  0  0  0  0
   34.4300   37.9920   21.4350 C   0  0  0  0  0  0  0  0  0  0  0  0
   34.3920   39.4040   21.5840 C   0  0  0  0  0  0  0  0  0  0  0  0
   33.9550   40.0040   22.7010 N   0  0  0  0  0  0  0  0  0  0  0  0
   34.4100   35.1170   21.2840 C   0  0  0  0  0  0  0  0  0  0  0  0
   34.3400   33.9080   21.2350 O   0  0  0  0  0  0  0  0  0  0  0  0
   33.9710   35.8150   22.4630 N   0  0  0  0  0  0  0  0  0  0  0  0
   33.9660   37.2170   22.5380 C   0  0  0  0  0  0  0  0  0  0  0  0
   33.5090   37.8030   23.6970 N   0  0  0  0  0  0  0  0  0  0  0  0
   33.4900   39.1760   23.7440 C   0  0  0  0  0  0  0  0  0  0  0  0
   32.9210   39.8440   24.8190 N   0  0  0  0  0  0  0  0  0  0  0  0
   32.7390   39.2810   26.1970 C   0  0  0  0  0  0  0  0  0  0  0  0
   35.2010   39.8430   26.7940 C   0  0  0  0  0  0  0  0  0  0  0  0
   34.8180   41.1110   27.3600 O   0  0  0  0  0  0  0  0  0  0  0  0
   30.7290   36.5630   27.7710 O   0  0  0  0  0  0  0  0  0  0  0  0
   39.3030   36.7520   17.3570 H   0  0  0  0  0  0  0  0  0  0  0  0
   32.1060   37.2080   25.8500 H   0  0  0  0  0  0  0  0  0  0  0  0
   30.8480   38.4560   25.4990 H   0  0  0  0  0  0  0  0  0  0  0  0
   31.8240   38.1200   28.4130 H   0  0  0  0  0  0  0  0  0  0  0  0
   30.1670   38.5730   27.7700 H   0  0  0  0  0  0  0  0  0  0  0  0
   33.8630   38.5420   27.8960 H   0  0  0  0  0  0  0  0  0  0  0  0
   34.4220   37.8810   26.3150 H   0  0  0  0  0  0  0  0  0  0  0  0
   32.3970   35.2280   23.8040 H   0  0  0  0  0  0  0  0  0  0  0  0
   33.6360   33.9300   23.4470 H   0  0  0  0  0  0  0  0  0  0  0  0
   34.0560   35.3240   24.5540 H   0  0  0  0  0  0  0  0  0  0  0  0
   35.7650   36.5510   14.8270 H   0  0  0  0  0  0  0  0  0  0  0  0
   34.3970   35.7750   16.7540 H   0  0  0  0  0  0  0  0  0  0  0  0
   35.2870   37.9740   19.4310 H   0  0  0  0  0  0  0  0  0  0  0  0
   34.7340   40.0560   20.7630 H   0  0  0  0  0  0  0  0  0  0  0  0
   33.0780   40.8740   24.8470 H   0  0  0  0  0  0  0  0  0  0  0  0
   32.3470   40.1600   26.7930 H   0  0  0  0  0  0  0  0  0  0  0  0
   36.0370   39.5180   27.4580 H   0  0  0  0  0  0  0  0  0  0  0  0
   35.5460   40.0210   25.7530 H   0  0  0  0  0  0  0  0  0  0  0  0
   34.1800   41.5460   26.7150 H   0  0  0  0  0  0  0  0  0  0  0  0
   29.7380   36.4480   27.5250 H   0  0  0  0  0  0  0  0  0  0  0  0
  1  2  2  0  0  0  0
  1  8  1  0  0  0  0
  1 30  1  0  0  0  0
  2  9  1  0  0  0  0
  2 10  1  0  0  0  0
  3  4  1  0  0  0  0
  3 26  1  0  0  0  0
  3 31  1  0  0  0  0
  3 32  1  0  0  0  0
  4 29  1  0  0  0  0
  4 33  1  0  0  0  0
  4 34  1  0  0  0  0
  5 26  1  0  0  0  0
  5 27  1  0  0  0  0
  5 35  1  0  0  0  0
  5 36  1  0  0  0  0
  6 21  1  0  0  0  0
  6 37  1  0  0  0  0
  6 38  1  0  0  0  0
  6 39  1  0  0  0  0
  7  8  1  0  0  0  0
  8 12  2  0  0  0  0
 10 11  2  0  0  0  0
 10 40  1  0  0  0  0
 11 12  1  0  0  0  0
 11 41  1  0  0  0  0
 12 13  1  0  0  0  0
 13 14  1  0  0  0  0
 14 15  2  0  0  0  0
 14 19  1  0  0  0  0
 15 16  1  0  0  0  0
 15 42  1  0  0  0  0
 16 17  2  0  0  0  0
 16 22  1  0  0  0  0
 17 18  1  0  0  0  0
 17 43  1  0  0  0  0
 18 24  2  0  0  0  0
 19 20  2  0  0  0  0
 19 21  1  0  0  0  0
 21 22  1  0  0  0  0
 22 23  2  0  0  0  0
 23 24  1  0  0  0  0
 24 25  1  0  0  0  0
 25 26  1  0  0  0  0
 25 44  1  0  0  0  0
 26 45  1  0  0  0  0
 27 28  1  0  0  0  0
 27 46  1  0  0  0  0
 27 47  1  0  0  0  0
 28 48  1  0  0  0  0
 29 49  1  0  0  0  0
M  END
$$$$
