p38a_3flz
 OpenBabel02232411163D
Structure written by MMmdl.
 46 49  0  0  0  0  0  0  0  0999 V2000
   35.1250   35.1400   19.1530 O   0  0  0  0  0  0  0  0  0  0  0  0
   34.9850   37.2760   20.3340 C   0  0  0  0  0  0  0  0  0  0  0  0
   34.2830   37.1840   22.7150 C   0  0  0  0  0  0  0  0  0  0  0  0
   34.6520   37.9400   21.5620 C   0  0  0  0  0  0  0  0  0  0  0  0
   34.6660   39.3550   21.6990 C   0  0  0  0  0  0  0  0  0  0  0  0
   34.0790   39.1660   23.9690 C   0  0  0  0  0  0  0  0  0  0  0  0
   34.8980   35.9260   20.2780 C   0  0  0  0  0  0  0  0  0  0  0  0
   36.1270   35.5860   18.2720 C   0  0  0  0  0  0  0  0  0  0  0  0
   33.8450   35.0100   23.8580 C   0  0  0  0  0  0  0  0  0  0  0  0
   31.9260   38.7540   26.3030 C   0  0  0  0  0  0  0  0  0  0  0  0
   35.7800   35.5220   16.9170 C   0  0  0  0  0  0  0  0  0  0  0  0
   38.0440   36.2210   16.3880 C   0  0  0  0  0  0  0  0  0  0  0  0
   36.7610   35.8460   15.9760 C   0  0  0  0  0  0  0  0  0  0  0  0
   38.3640   36.2680   17.7490 C   0  0  0  0  0  0  0  0  0  0  0  0
   34.2440   33.8800   21.3540 O   0  0  0  0  0  0  0  0  0  0  0  0
   34.4330   35.0750   21.4020 C   0  0  0  0  0  0  0  0  0  0  0  0
   37.4050   35.9500   18.7140 C   0  0  0  0  0  0  0  0  0  0  0  0
   34.3890   39.9760   22.8510 N   0  0  0  0  0  0  0  0  0  0  0  0
   34.1920   35.7860   22.6340 N   0  0  0  0  0  0  0  0  0  0  0  0
   33.9970   37.7910   23.9160 N   0  0  0  0  0  0  0  0  0  0  0  0
   33.8950   39.8410   25.1540 N   0  0  0  0  0  0  0  0  0  0  0  0
   33.3680   39.2850   26.4360 C   0  0  0  0  0  0  0  0  0  0  0  0
   34.2900   38.2020   27.0260 C   0  0  0  0  0  0  0  0  0  0  0  0
   33.7060   37.6980   28.3520 C   0  0  0  0  0  0  0  0  0  0  0  0
   32.3460   37.2290   28.1960 O   0  0  0  0  0  0  0  0  0  0  0  0
   31.4490   38.2300   27.6640 C   0  0  0  0  0  0  0  0  0  0  0  0
   35.3120   37.8850   19.4860 H   0  0  0  0  0  0  0  0  0  0  0  0
   34.9000   39.9860   20.8260 H   0  0  0  0  0  0  0  0  0  0  0  0
   33.8390   33.9110   23.6310 H   0  0  0  0  0  0  0  0  0  0  0  0
   34.6000   35.2140   24.6640 H   0  0  0  0  0  0  0  0  0  0  0  0
   32.8310   35.3150   24.2320 H   0  0  0  0  0  0  0  0  0  0  0  0
   31.2500   39.5720   25.9580 H   0  0  0  0  0  0  0  0  0  0  0  0
   31.8890   37.9270   25.5540 H   0  0  0  0  0  0  0  0  0  0  0  0
   34.7680   35.2710   16.5970 H   0  0  0  0  0  0  0  0  0  0  0  0
   38.7890   36.5110   15.6520 H   0  0  0  0  0  0  0  0  0  0  0  0
   36.5130   35.8320   14.9140 H   0  0  0  0  0  0  0  0  0  0  0  0
   39.3680   36.5730   18.0500 H   0  0  0  0  0  0  0  0  0  0  0  0
   37.6470   36.0120   19.7720 H   0  0  0  0  0  0  0  0  0  0  0  0
   33.8730   40.8830   25.1230 H   0  0  0  0  0  0  0  0  0  0  0  0
   33.3640   40.1760   27.1360 H   0  0  0  0  0  0  0  0  0  0  0  0
   34.3890   37.3450   26.3140 H   0  0  0  0  0  0  0  0  0  0  0  0
   35.3070   38.6270   27.2050 H   0  0  0  0  0  0  0  0  0  0  0  0
   34.2340   36.7790   28.6980 H   0  0  0  0  0  0  0  0  0  0  0  0
   33.7260   38.4960   29.1290 H   0  0  0  0  0  0  0  0  0  0  0  0
   31.3570   39.0590   28.4030 H   0  0  0  0  0  0  0  0  0  0  0  0
   30.4940   37.6630   27.5670 H   0  0  0  0  0  0  0  0  0  0  0  0
  1  7  1  0  0  0  0
  1  8  1  0  0  0  0
  2  4  1  0  0  0  0
  2  7  2  0  0  0  0
  2 27  1  0  0  0  0
  3  4  2  0  0  0  0
  3 19  1  0  0  0  0
  3 20  1  0  0  0  0
  4  5  1  0  0  0  0
  5 18  2  0  0  0  0
  5 28  1  0  0  0  0
  6 18  1  0  0  0  0
  6 20  2  0  0  0  0
  6 21  1  0  0  0  0
  7 16  1  0  0  0  0
  8 11  2  0  0  0  0
  8 17  1  0  0  0  0
  9 19  1  0  0  0  0
  9 29  1  0  0  0  0
  9 30  1  0  0  0  0
  9 31  1  0  0  0  0
 10 22  1  0  0  0  0
 10 26  1  0  0  0  0
 10 32  1  0  0  0  0
 10 33  1  0  0  0  0
 11 13  1  0  0  0  0
 11 34  1  0  0  0  0
 12 13  2  0  0  0  0
 12 14  1  0  0  0  0
 12 35  1  0  0  0  0
 13 36  1  0  0  0  0
 14 17  2  0  0  0  0
 14 37  1  0  0  0  0
 15 16  2  0  0  0  0
 16 19  1  0  0  0  0
 17 38  1  0  0  0  0
 21 22  1  0  0  0  0
 21 39  1  0  0  0  0
 22 23  1  0  0  0  0
 22 40  1  0  0  0  0
 23 24  1  0  0  0  0
 23 41  1  0  0  0  0
 23 42  1  0  0  0  0
 24 25  1  0  0  0  0
 24 43  1  0  0  0  0
 24 44  1  0  0  0  0
 25 26  1  0  0  0  0
 26 45  1  0  0  0  0
 26 46  1  0  0  0  0
M  END
$$$$
