18631-1
 OpenBabel02232411163D
Structure written by MMmdl.
 42 43  0  0  0  0  0  0  0  0999 V2000
   23.8320   12.6560   30.3300 C   0  0  0  0  0  0  0  0  0  0  0  0
   23.4060   11.2050   30.4550 C   0  0  0  0  0  0  0  0  0  0  0  0
   22.1560   11.2910   31.2500 O   0  0  0  0  0  0  0  0  0  0  0  0
   21.5220   10.1480   31.5870 C   0  0  0  0  0  0  0  0  0  0  0  0
   22.0000    8.9620   31.1440 N   0  0  0  0  0  0  0  0  0  0  0  0
   21.2650    7.8230   31.4510 C   0  0  0  0  0  0  0  0  0  0  0  0
   20.1080    7.8620   32.2240 C   0  0  0  0  0  0  0  0  0  0  0  0
   19.6250    9.1100   32.6970 C   0  0  0  0  0  0  0  0  0  0  0  0
   18.4810    9.1540   33.4550 N   0  0  0  0  0  0  0  0  0  0  0  0
   20.3340   10.3070   32.3630 C   0  0  0  0  0  0  0  0  0  0  0  0
   19.9100   11.6070   32.7100 C   0  0  0  0  0  0  0  0  0  0  0  0
   19.6050   12.7000   32.9520 N   0  0  0  0  0  0  0  0  0  0  0  0
   21.8250    6.6630   30.8720 N   0  0  0  0  0  0  0  0  0  0  0  0
   21.2320    5.3780   30.8050 C   0  0  0  0  0  0  0  0  0  0  0  0
   20.1640    5.1250   31.3210 O   0  0  0  0  0  0  0  0  0  0  0  0
   22.0280    4.3860   29.9670 C   0  0  0  0  0  0  0  0  0  0  0  0
   23.3350    4.0100   30.5980 C   0  0  0  0  0  0  0  0  0  0  0  0
   24.4930    4.8090   30.3970 C   0  0  0  0  0  0  0  0  0  0  0  0
   24.2610    5.8940   29.5680 O   0  0  0  0  0  0  0  0  0  0  0  0
   25.3280    6.8640   29.3920 C   0  0  0  0  0  0  0  0  0  0  0  0
   25.7210    4.4900   30.9770 C   0  0  0  0  0  0  0  0  0  0  0  0
   25.8110    3.3430   31.7750 C   0  0  0  0  0  0  0  0  0  0  0  0
   24.6940    2.5320   31.9720 C   0  0  0  0  0  0  0  0  0  0  0  0
   23.4670    2.8610   31.3800 C   0  0  0  0  0  0  0  0  0  0  0  0
   24.0300   13.1090   31.3280 H   0  0  0  0  0  0  0  0  0  0  0  0
   23.0520   13.2590   29.8100 H   0  0  0  0  0  0  0  0  0  0  0  0
   24.7710   12.7030   29.7220 H   0  0  0  0  0  0  0  0  0  0  0  0
   23.1530   10.7510   29.4710 H   0  0  0  0  0  0  0  0  0  0  0  0
   24.1390   10.5910   31.0240 H   0  0  0  0  0  0  0  0  0  0  0  0
   19.5530    6.9500   32.4570 H   0  0  0  0  0  0  0  0  0  0  0  0
   17.9720    8.2850   33.7070 H   0  0  0  0  0  0  0  0  0  0  0  0
   18.0810   10.0400   33.7630 H   0  0  0  0  0  0  0  0  0  0  0  0
   22.7500    6.8020   30.3970 H   0  0  0  0  0  0  0  0  0  0  0  0
   21.4040    3.4680   29.8170 H   0  0  0  0  0  0  0  0  0  0  0  0
   22.2240    4.8500   28.9620 H   0  0  0  0  0  0  0  0  0  0  0  0
   25.6280    7.2880   30.3740 H   0  0  0  0  0  0  0  0  0  0  0  0
   26.1820    6.3900   28.8630 H   0  0  0  0  0  0  0  0  0  0  0  0
   24.8290    7.6300   28.7560 H   0  0  0  0  0  0  0  0  0  0  0  0
   26.6110    5.1020   30.8220 H   0  0  0  0  0  0  0  0  0  0  0  0
   26.7690    3.0840   32.2380 H   0  0  0  0  0  0  0  0  0  0  0  0
   24.7770    1.6310   32.5870 H   0  0  0  0  0  0  0  0  0  0  0  0
   22.6120    2.1970   31.5410 H   0  0  0  0  0  0  0  0  0  0  0  0
  1  2  1  0  0  0  0
  1 25  1  0  0  0  0
  1 26  1  0  0  0  0
  1 27  1  0  0  0  0
  2  3  1  0  0  0  0
  2 28  1  0  0  0  0
  2 29  1  0  0  0  0
  3  4  1  0  0  0  0
  4 10  2  0  0  0  0
  4  5  1  0  0  0  0
  5  6  2  0  0  0  0
  6  7  1  0  0  0  0
  6 13  1  0  0  0  0
  7  8  2  0  0  0  0
  7 30  1  0  0  0  0
  8  9  1  0  0  0  0
  8 10  1  0  0  0  0
  9 31  1  0  0  0  0
  9 32  1  0  0  0  0
 10 11  1  0  0  0  0
 11 12  3  0  0  0  0
 13 14  1  0  0  0  0
 13 33  1  0  0  0  0
 14 15  2  0  0  0  0
 14 16  1  0  0  0  0
 16 17  1  0  0  0  0
 16 34  1  0  0  0  0
 16 35  1  0  0  0  0
 17 24  2  0  0  0  0
 17 18  1  0  0  0  0
 18 19  1  0  0  0  0
 18 21  2  0  0  0  0
 19 20  1  0  0  0  0
 20 36  1  0  0  0  0
 20 37  1  0  0  0  0
 20 38  1  0  0  0  0
 21 22  1  0  0  0  0
 21 39  1  0  0  0  0
 22 23  2  0  0  0  0
 22 40  1  0  0  0  0
 23 24  1  0  0  0  0
 23 41  1  0  0  0  0
 24 42  1  0  0  0  0
M  END
$$$$
