62
 OpenBabel02232411163D
Structure written by MMmdl.
 43 46  0  0  0  0  0  0  0  0999 V2000
    3.4490  -48.1610    7.1170 O   0  0  0  0  0  0  0  0  0  0  0  0
    3.1820  -49.1440    6.4140 C   0  0  0  0  0  0  0  0  0  0  0  0
    3.9870  -49.8800    5.8120 O   0  5  0  0  0  0  0  0  0  0  0  0
    1.7190  -49.5950    6.3140 C   0  0  0  0  0  0  0  0  0  0  0  0
    1.4950  -51.3170    6.5740 S   0  0  0  0  0  0  0  0  0  0  0  0
   -0.2350  -51.2060    6.4370 C   0  0  0  0  0  0  0  0  0  0  0  0
   -1.1500  -52.2430    6.6030 C   0  0  0  0  0  0  0  0  0  0  0  0
   -2.5070  -51.9610    6.4550 C   0  0  0  0  0  0  0  0  0  0  0  0
   -2.9270  -50.6630    6.1210 C   0  0  0  0  0  0  0  0  0  0  0  0
   -1.9890  -49.6450    5.9590 C   0  0  0  0  0  0  0  0  0  0  0  0
   -0.6120  -49.8680    6.1320 C   0  0  0  0  0  0  0  0  0  0  0  0
    0.5420  -48.9560    6.0930 C   0  0  0  0  0  0  0  0  0  0  0  0
    0.3900  -47.4720    5.9290 C   0  0  0  0  0  0  0  0  0  0  0  0
   -0.1580  -46.8920    7.2470 C   0  0  0  0  0  0  0  0  0  0  0  0
   -0.8250  -45.5270    7.1460 C   0  0  0  0  0  0  0  0  0  0  0  0
   -2.1960  -45.5690    6.6250 O   0  0  0  0  0  0  0  0  0  0  0  0
   -3.2340  -45.7590    7.4990 C   0  0  0  0  0  0  0  0  0  0  0  0
   -5.5200  -46.0020    9.1170 C   0  0  0  0  0  0  0  0  0  0  0  0
   -4.3420  -46.6060    9.4760 C   0  0  0  0  0  0  0  0  0  0  0  0
   -3.1790  -46.4810    8.6730 C   0  0  0  0  0  0  0  0  0  0  0  0
   -0.8320  -53.2580    6.8540 H   0  0  0  0  0  0  0  0  0  0  0  0
   -3.2520  -52.7440    6.6020 H   0  0  0  0  0  0  0  0  0  0  0  0
   -3.9930  -50.4600    5.9910 H   0  0  0  0  0  0  0  0  0  0  0  0
   -2.5990  -48.0890    5.5350 Cl  0  0  0  0  0  0  0  0  0  0  0  0
   -0.2970  -47.2340    5.0810 H   0  0  0  0  0  0  0  0  0  0  0  0
    1.3750  -46.9950    5.6980 H   0  0  0  0  0  0  0  0  0  0  0  0
    0.6940  -46.7910    7.9630 H   0  0  0  0  0  0  0  0  0  0  0  0
   -0.8950  -47.6160    7.6730 H   0  0  0  0  0  0  0  0  0  0  0  0
   -0.3650  -44.8850    6.3620 H   0  0  0  0  0  0  0  0  0  0  0  0
   -0.8680  -45.0180    8.1340 H   0  0  0  0  0  0  0  0  0  0  0  0
   -2.2840  -46.9900    9.0030 H   0  0  0  0  0  0  0  0  0  0  0  0
   -5.6090  -45.2740    7.8900 C   0  0  0  0  0  0  0  0  0  0  0  0
   -4.4630  -45.1360    7.0620 C   0  0  0  0  0  0  0  0  0  0  0  0
   -4.5680  -44.4310    5.8260 C   0  0  0  0  0  0  0  0  0  0  0  0
   -5.7720  -43.9010    5.4270 C   0  0  0  0  0  0  0  0  0  0  0  0
   -6.9260  -44.0550    6.2460 C   0  0  0  0  0  0  0  0  0  0  0  0
   -6.8470  -44.7110    7.4500 C   0  0  0  0  0  0  0  0  0  0  0  0
   -3.6840  -44.3470    5.1890 H   0  0  0  0  0  0  0  0  0  0  0  0
   -5.8610  -43.3660    4.4850 H   0  0  0  0  0  0  0  0  0  0  0  0
   -7.8790  -43.6560    5.9040 H   0  0  0  0  0  0  0  0  0  0  0  0
   -7.7310  -44.8360    8.0760 H   0  0  0  0  0  0  0  0  0  0  0  0
   -4.2810  -47.2040   10.3880 H   0  0  0  0  0  0  0  0  0  0  0  0
   -6.4070  -46.0840    9.7450 H   0  0  0  0  0  0  0  0  0  0  0  0
  1  2  2  0  0  0  0
  2  3  1  0  0  0  0
  2  4  1  0  0  0  0
  4  5  1  0  0  0  0
  4 12  2  0  0  0  0
  5  6  1  0  0  0  0
  6  7  2  0  0  0  0
  6 11  1  0  0  0  0
  7  8  1  0  0  0  0
  7 21  1  0  0  0  0
  8  9  2  0  0  0  0
  8 22  1  0  0  0  0
  9 10  1  0  0  0  0
  9 23  1  0  0  0  0
 10 11  2  0  0  0  0
 10 24  1  0  0  0  0
 11 12  1  0  0  0  0
 12 13  1  0  0  0  0
 13 25  1  0  0  0  0
 13 26  1  0  0  0  0
 13 14  1  0  0  0  0
 14 15  1  0  0  0  0
 14 27  1  0  0  0  0
 14 28  1  0  0  0  0
 15 16  1  0  0  0  0
 15 29  1  0  0  0  0
 15 30  1  0  0  0  0
 16 17  1  0  0  0  0
 17 20  2  0  0  0  0
 17 33  1  0  0  0  0
 18 19  2  0  0  0  0
 18 32  1  0  0  0  0
 18 43  1  0  0  0  0
 19 20  1  0  0  0  0
 19 42  1  0  0  0  0
 20 31  1  0  0  0  0
 32 33  2  0  0  0  0
 32 37  1  0  0  0  0
 33 34  1  0  0  0  0
 34 35  2  0  0  0  0
 34 38  1  0  0  0  0
 35 36  1  0  0  0  0
 35 39  1  0  0  0  0
 36 37  2  0  0  0  0
 36 40  1  0  0  0  0
 37 41  1  0  0  0  0
M  CHG  1   3  -1
M  END
$$$$
