18658-1
 OpenBabel02232411163D
Structure written by MMmdl.
 47 48  0  0  0  0  0  0  0  0999 V2000
   22.0400   13.0320   28.4270 O   0  0  0  0  0  0  0  0  0  0  0  0
   23.0020   12.8270   29.4740 C   0  0  0  0  0  0  0  0  0  0  0  0
   22.9800   11.3920   30.0200 C   0  0  0  0  0  0  0  0  0  0  0  0
   21.9480   11.4260   31.0710 O   0  0  0  0  0  0  0  0  0  0  0  0
   21.4200   10.2530   31.5010 C   0  0  0  0  0  0  0  0  0  0  0  0
   21.9200    9.0800   31.0490 N   0  0  0  0  0  0  0  0  0  0  0  0
   21.2590    7.9180   31.4310 C   0  0  0  0  0  0  0  0  0  0  0  0
   20.1480    7.9290   32.2680 C   0  0  0  0  0  0  0  0  0  0  0  0
   19.6450    9.1660   32.7520 C   0  0  0  0  0  0  0  0  0  0  0  0
   18.5240    9.1790   33.5430 N   0  0  0  0  0  0  0  0  0  0  0  0
   20.3000   10.3820   32.3750 C   0  0  0  0  0  0  0  0  0  0  0  0
   19.8690   11.6720   32.7490 C   0  0  0  0  0  0  0  0  0  0  0  0
   19.5590   12.7610   33.0040 N   0  0  0  0  0  0  0  0  0  0  0  0
   21.8270    6.7610   30.8530 N   0  0  0  0  0  0  0  0  0  0  0  0
   21.2420    5.4710   30.7980 C   0  0  0  0  0  0  0  0  0  0  0  0
   20.1870    5.2040   31.3330 O   0  0  0  0  0  0  0  0  0  0  0  0
   22.0270    4.4860   29.9420 C   0  0  0  0  0  0  0  0  0  0  0  0
   23.3500    4.1190   30.5450 C   0  0  0  0  0  0  0  0  0  0  0  0
   24.4880    4.9320   30.3260 C   0  0  0  0  0  0  0  0  0  0  0  0
   24.2290    6.0190   29.4970 O   0  0  0  0  0  0  0  0  0  0  0  0
   25.2690    7.0220   29.3560 C   0  0  0  0  0  0  0  0  0  0  0  0
   25.7330    4.6220   30.8850 C   0  0  0  0  0  0  0  0  0  0  0  0
   25.8650    3.4820   31.6720 C   0  0  0  0  0  0  0  0  0  0  0  0
   24.7420    2.6560   31.8760 C   0  0  0  0  0  0  0  0  0  0  0  0
   23.4940    2.9610   31.3150 C   0  0  0  0  0  0  0  0  0  0  0  0
   25.0160    1.5710   32.6840 O   0  0  0  0  0  0  0  0  0  0  0  0
   24.0150    0.5250   32.7740 C   0  0  0  0  0  0  0  0  0  0  0  0
   22.3380   12.4800   27.6250 H   0  0  0  0  0  0  0  0  0  0  0  0
   24.0280   13.0550   29.0860 H   0  0  0  0  0  0  0  0  0  0  0  0
   22.6970   13.5630   30.2570 H   0  0  0  0  0  0  0  0  0  0  0  0
   22.7070   10.6500   29.2360 H   0  0  0  0  0  0  0  0  0  0  0  0
   23.9400   11.1220   30.5180 H   0  0  0  0  0  0  0  0  0  0  0  0
   19.6400    7.0010   32.5440 H   0  0  0  0  0  0  0  0  0  0  0  0
   18.0420    8.2970   33.8040 H   0  0  0  0  0  0  0  0  0  0  0  0
   18.1070   10.0550   33.8580 H   0  0  0  0  0  0  0  0  0  0  0  0
   22.7370    6.9080   30.3500 H   0  0  0  0  0  0  0  0  0  0  0  0
   21.4050    3.5650   29.7990 H   0  0  0  0  0  0  0  0  0  0  0  0
   22.2040    4.9530   28.9330 H   0  0  0  0  0  0  0  0  0  0  0  0
   26.1340    6.5890   28.8100 H   0  0  0  0  0  0  0  0  0  0  0  0
   24.7510    7.7970   28.7460 H   0  0  0  0  0  0  0  0  0  0  0  0
   25.5590    7.4220   30.3510 H   0  0  0  0  0  0  0  0  0  0  0  0
   26.6090    5.2520   30.7080 H   0  0  0  0  0  0  0  0  0  0  0  0
   26.8320    3.2290   32.1160 H   0  0  0  0  0  0  0  0  0  0  0  0
   22.6370    2.3050   31.4750 H   0  0  0  0  0  0  0  0  0  0  0  0
   24.5390   -0.2340   33.4030 H   0  0  0  0  0  0  0  0  0  0  0  0
   23.1040    0.9050   33.2830 H   0  0  0  0  0  0  0  0  0  0  0  0
   23.7950    0.1200   31.7620 H   0  0  0  0  0  0  0  0  0  0  0  0
  1  2  1  0  0  0  0
  1 28  1  0  0  0  0
  2  3  1  0  0  0  0
  2 29  1  0  0  0  0
  2 30  1  0  0  0  0
  3  4  1  0  0  0  0
  3 31  1  0  0  0  0
  3 32  1  0  0  0  0
  4  5  1  0  0  0  0
  5 11  2  0  0  0  0
  5  6  1  0  0  0  0
  6  7  2  0  0  0  0
  7  8  1  0  0  0  0
  7 14  1  0  0  0  0
  8  9  2  0  0  0  0
  8 33  1  0  0  0  0
  9 10  1  0  0  0  0
  9 11  1  0  0  0  0
 10 34  1  0  0  0  0
 10 35  1  0  0  0  0
 11 12  1  0  0  0  0
 12 13  3  0  0  0  0
 14 15  1  0  0  0  0
 14 36  1  0  0  0  0
 15 16  2  0  0  0  0
 15 17  1  0  0  0  0
 17 18  1  0  0  0  0
 17 37  1  0  0  0  0
 17 38  1  0  0  0  0
 18 25  2  0  0  0  0
 18 19  1  0  0  0  0
 19 20  1  0  0  0  0
 19 22  2  0  0  0  0
 20 21  1  0  0  0  0
 21 39  1  0  0  0  0
 21 40  1  0  0  0  0
 21 41  1  0  0  0  0
 22 23  1  0  0  0  0
 22 42  1  0  0  0  0
 23 24  2  0  0  0  0
 23 43  1  0  0  0  0
 24 25  1  0  0  0  0
 24 26  1  0  0  0  0
 25 44  1  0  0  0  0
 26 27  1  0  0  0  0
 27 45  1  0  0  0  0
 27 46  1  0  0  0  0
 27 47  1  0  0  0  0
M  END
$$$$
