p38a_2x
 OpenBabel02232411163D
Structure written by MMmdl.
 43 46  0  0  1  0  0  0  0  0999 V2000
   36.3550   36.0480   15.8030 C   0  0  0  0  0  0  0  0  0  0  0  0
   34.5180   35.0150   21.3050 C   0  0  0  0  0  0  0  0  0  0  0  0
   35.7140   35.5660   16.9410 C   0  0  0  0  0  0  0  0  0  0  0  0
   33.9640   39.1210   23.7990 C   0  0  0  0  0  0  0  0  0  0  0  0
   34.7780   37.8750   21.4790 C   0  0  0  0  0  0  0  0  0  0  0  0
   35.2690   37.1940   20.3110 C   0  0  0  0  0  0  0  0  0  0  0  0
   37.6490   36.5530   15.9830 C   0  0  0  0  0  0  0  0  0  0  0  0
   38.3100   36.5600   17.2140 C   0  0  0  0  0  0  0  0  0  0  0  0
   37.6310   36.1020   18.3490 C   0  0  0  0  0  0  0  0  0  0  0  0
   34.2470   37.1340   22.5750 C   0  0  0  0  0  0  0  0  0  0  0  0
   34.8090   39.2880   21.6150 C   0  0  0  0  0  0  0  0  0  0  0  0
   35.1740   35.8460   20.2580 C   0  0  0  0  0  0  0  0  0  0  0  0
   36.3320   35.6050   18.2070 C   0  0  0  0  0  0  0  0  0  0  0  0
   33.5490   34.9850   23.6340 C   0  0  0  0  0  0  0  0  0  0  0  0
   34.4990   35.0400   16.8580 F   0  0  0  0  0  0  0  0  0  0  0  0
   35.6230   34.9950   19.2500 O   0  0  0  0  0  0  0  0  0  0  0  0
   34.4200   39.9210   22.7310 N   0  0  0  0  0  0  0  0  0  0  0  0
   34.3070   33.8250   21.2230 O   0  0  0  0  0  0  0  0  0  0  0  0
   34.1190   35.7390   22.4820 N   0  0  0  0  0  0  0  0  0  0  0  0
   33.8420   37.7510   23.7370 N   0  0  0  0  0  0  0  0  0  0  0  0
   33.6910   39.7990   24.9730 N   0  0  0  0  0  0  0  0  0  0  0  0
   35.8670   36.0560   14.8260 H   0  0  0  0  0  0  0  0  0  0  0  0
   35.7130   37.7950   19.5150 H   0  0  0  0  0  0  0  0  0  0  0  0
   39.3290   36.9440   17.3020 H   0  0  0  0  0  0  0  0  0  0  0  0
   38.1120   36.1600   19.3290 H   0  0  0  0  0  0  0  0  0  0  0  0
   35.1530   39.9120   20.7750 H   0  0  0  0  0  0  0  0  0  0  0  0
   34.1960   35.1320   24.5410 H   0  0  0  0  0  0  0  0  0  0  0  0
   32.5170   35.3640   23.8660 H   0  0  0  0  0  0  0  0  0  0  0  0
   33.4950   33.8910   23.3940 H   0  0  0  0  0  0  0  0  0  0  0  0
   33.7440   40.8410   24.9480 H   0  0  0  0  0  0  0  0  0  0  0  0
   38.2620   37.0860   14.9280 F   0  0  0  0  0  0  0  0  0  0  0  0
   32.4630   37.4290   27.5350 O   0  0  0  0  0  0  0  0  0  0  0  0
   31.2350   37.6220   26.7710 C   0  0  0  0  0  0  0  0  0  0  0  0
   31.4900   38.7110   25.7200 C   0  0  0  0  0  0  0  0  0  0  0  0
   32.8680   39.3020   26.1010 C   0  0  1  0  0  0  0  0  0  0  0  0
   33.5450   38.1730   26.9220 C   0  0  0  0  0  0  0  0  0  0  0  0
   30.4770   37.9260   27.5260 H   0  0  0  0  0  0  0  0  0  0  0  0
   30.9890   36.6400   26.3130 H   0  0  0  0  0  0  0  0  0  0  0  0
   31.5050   38.2660   24.6980 H   0  0  0  0  0  0  0  0  0  0  0  0
   30.7030   39.4940   25.7380 H   0  0  0  0  0  0  0  0  0  0  0  0
   32.7160   40.2050   26.7630 H   0  0  0  0  0  0  0  0  0  0  0  0
   34.1440   38.5640   27.7710 H   0  0  0  0  0  0  0  0  0  0  0  0
   34.1230   37.4680   26.2860 H   0  0  0  0  0  0  0  0  0  0  0  0
  1  3  2  0  0  0  0
  1  7  1  0  0  0  0
  1 22  1  0  0  0  0
  2 12  1  0  0  0  0
  2 18  2  0  0  0  0
  2 19  1  0  0  0  0
  3 13  1  0  0  0  0
  3 15  1  0  0  0  0
  4 17  2  0  0  0  0
  4 20  1  0  0  0  0
  4 21  1  0  0  0  0
  5  6  1  0  0  0  0
  5 10  1  0  0  0  0
  5 11  2  0  0  0  0
  6 12  2  0  0  0  0
  6 23  1  0  0  0  0
  7  8  2  0  0  0  0
  7 31  1  0  0  0  0
  8  9  1  0  0  0  0
  8 24  1  0  0  0  0
  9 13  2  0  0  0  0
  9 25  1  0  0  0  0
 10 19  1  0  0  0  0
 10 20  2  0  0  0  0
 11 17  1  0  0  0  0
 11 26  1  0  0  0  0
 12 16  1  0  0  0  0
 13 16  1  0  0  0  0
 14 19  1  0  0  0  0
 14 27  1  0  0  0  0
 14 28  1  0  0  0  0
 14 29  1  0  0  0  0
 21 30  1  0  0  0  0
 21 35  1  0  0  0  0
 32 33  1  0  0  0  0
 32 36  1  0  0  0  0
 33 34  1  0  0  0  0
 33 37  1  0  0  0  0
 33 38  1  0  0  0  0
 34 35  1  0  0  0  0
 34 39  1  0  0  0  0
 34 40  1  0  0  0  0
 35 36  1  0  0  0  0
 35 41  1  1  0  0  0
 36 42  1  0  0  0  0
 36 43  1  0  0  0  0
M  END
$$$$
