7a
 OpenBabel02232411173D

 58 60  0  0  1  0  0  0  0  0999 V2000
   18.2000  -13.0550   21.5270 N   0  0  0  0  0  0  0  0  0  0  0  0
   17.9400  -11.7180   20.9080 C   0  0  2  0  0  0  0  0  0  0  0  0
   17.3000  -13.6310   22.3840 C   0  0  0  0  0  0  0  0  0  0  0  0
   16.2590  -13.0570   22.6960 O   0  0  0  0  0  0  0  0  0  0  0  0
   16.5280  -11.6630   20.2580 C   0  0  0  0  0  0  0  0  0  0  0  0
   16.1030  -12.5380   19.5150 O   0  0  0  0  0  0  0  0  0  0  0  0
   19.0470  -11.5370   19.8510 C   0  0  0  0  0  0  0  0  0  0  0  0
   17.6370  -15.0370   22.9590 C   0  0  2  0  0  0  0  0  0  0  0  0
   15.8380  -10.4950   20.5190 N   0  0  0  0  0  0  0  0  0  0  0  0
   20.1290  -12.5920   20.1430 C   0  0  0  0  0  0  0  0  0  0  0  0
   16.3500  -15.8820   22.9320 N   0  3  0  0  0  0  0  0  0  0  0  0
   18.1320  -14.9580   24.4160 C   0  0  0  0  0  0  0  0  0  0  0  0
   14.4350  -10.2440   20.1050 C   0  0  0  0  0  0  0  0  0  0  0  0
   19.4730  -13.6650   21.0310 C   0  0  0  0  0  0  0  0  0  0  0  0
   19.5870  -14.5740   24.5250 C   0  0  0  0  0  0  0  0  0  0  0  0
   13.4160  -10.7000   21.1240 C   0  0  0  0  0  0  0  0  0  0  0  0
   19.9570  -13.4030   25.1960 C   0  0  0  0  0  0  0  0  0  0  0  0
   12.7770  -11.9510   21.0480 C   0  0  0  0  0  0  0  0  0  0  0  0
   21.3060  -13.0570   25.3250 C   0  0  0  0  0  0  0  0  0  0  0  0
   11.7740  -12.2520   21.9870 C   0  0  0  0  0  0  0  0  0  0  0  0
   22.2980  -13.8980   24.8150 C   0  0  0  0  0  0  0  0  0  0  0  0
   11.4100  -11.3410   22.9720 C   0  0  0  0  0  0  0  0  0  0  0  0
   21.9320  -15.0830   24.1630 C   0  0  0  0  0  0  0  0  0  0  0  0
   12.0790  -10.1100   23.0800 C   0  0  0  0  0  0  0  0  0  0  0  0
   20.5850  -15.4180   24.0120 C   0  0  0  0  0  0  0  0  0  0  0  0
   13.0820   -9.8030   22.1530 C   0  0  0  0  0  0  0  0  0  0  0  0
   18.0450  -10.9350   21.7090 H   0  0  0  0  0  0  0  0  0  0  0  0
   18.6490  -11.6830   18.8200 H   0  0  0  0  0  0  0  0  0  0  0  0
   19.4670  -10.5160   19.9460 H   0  0  0  0  0  0  0  0  0  0  0  0
   18.3880  -15.5990   22.3320 H   0  0  0  0  0  0  0  0  0  0  0  0
   16.2460   -9.8020   21.1740 H   0  0  0  0  0  0  0  0  0  0  0  0
   20.4990  -13.0540   19.1970 H   0  0  0  0  0  0  0  0  0  0  0  0
   20.9930  -12.1310   20.6750 H   0  0  0  0  0  0  0  0  0  0  0  0
   16.5680  -16.8620   23.2830 H   0  0  0  0  0  0  0  0  0  0  0  0
   15.6130  -15.4330   23.5670 H   0  0  0  0  0  0  0  0  0  0  0  0
   15.9780  -15.9640   21.9460 H   0  0  0  0  0  0  0  0  0  0  0  0
   17.4890  -14.2440   24.9920 H   0  0  0  0  0  0  0  0  0  0  0  0
   18.0250  -15.9740   24.8930 H   0  0  0  0  0  0  0  0  0  0  0  0
   14.3550   -9.1270   19.9700 H   0  0  0  0  0  0  0  0  0  0  0  0
   14.2620  -10.7290   19.1070 H   0  0  0  0  0  0  0  0  0  0  0  0
   20.1320  -13.9260   21.8980 H   0  0  0  0  0  0  0  0  0  0  0  0
   19.2490  -14.5860   20.4330 H   0  0  0  0  0  0  0  0  0  0  0  0
   19.1950  -12.7680   25.6400 H   0  0  0  0  0  0  0  0  0  0  0  0
   21.5600  -12.1240   25.8320 H   0  0  0  0  0  0  0  0  0  0  0  0
   11.2700  -13.2210   21.9540 H   0  0  0  0  0  0  0  0  0  0  0  0
   23.3550  -13.6460   24.9300 H   0  0  0  0  0  0  0  0  0  0  0  0
   22.6950  -15.7610   23.7680 H   0  0  0  0  0  0  0  0  0  0  0  0
   20.3070  -16.3440   23.5030 H   0  0  0  0  0  0  0  0  0  0  0  0
   13.6150   -8.8550   22.2300 H   0  0  0  0  0  0  0  0  0  0  0  0
   10.6020  -11.5940   23.6640 H   0  0  0  0  0  0  0  0  0  0  0  0
   13.1170  -12.9810   20.0190 C   0  0  0  0  0  0  0  0  0  0  0  0
   12.3990  -13.8360   20.0390 H   0  0  0  0  0  0  0  0  0  0  0  0
   13.1110  -12.5520   18.9950 H   0  0  0  0  0  0  0  0  0  0  0  0
   14.1410  -13.3860   20.2170 H   0  0  0  0  0  0  0  0  0  0  0  0
   11.7450   -9.1780   24.2000 C   0  0  0  0  0  0  0  0  0  0  0  0
   12.0340   -8.1290   23.9760 H   0  0  0  0  0  0  0  0  0  0  0  0
   10.6510   -9.2140   24.4310 H   0  0  0  0  0  0  0  0  0  0  0  0
   12.2950   -9.5080   25.1100 H   0  0  0  0  0  0  0  0  0  0  0  0
  1  2  1  0  0  0  0
  1 14  1  0  0  0  0
  1  3  1  0  0  0  0
  2  5  1  0  0  0  0
  2  7  1  0  0  0  0
  2 27  1  1  0  0  0
  3  8  1  0  0  0  0
  3  4  2  0  0  0  0
  5  6  2  0  0  0  0
  5  9  1  0  0  0  0
  7 10  1  0  0  0  0
  7 28  1  0  0  0  0
  7 29  1  0  0  0  0
  8 11  1  0  0  0  0
  8 12  1  0  0  0  0
  8 30  1  6  0  0  0
  9 13  1  0  0  0  0
  9 31  1  0  0  0  0
 10 14  1  0  0  0  0
 10 32  1  0  0  0  0
 10 33  1  0  0  0  0
 11 34  1  0  0  0  0
 11 35  1  0  0  0  0
 11 36  1  0  0  0  0
 12 15  1  0  0  0  0
 12 37  1  0  0  0  0
 12 38  1  0  0  0  0
 13 16  1  0  0  0  0
 13 39  1  0  0  0  0
 13 40  1  0  0  0  0
 14 41  1  0  0  0  0
 14 42  1  0  0  0  0
 15 17  2  0  0  0  0
 15 25  1  0  0  0  0
 16 18  2  0  0  0  0
 16 26  1  0  0  0  0
 17 19  1  0  0  0  0
 17 43  1  0  0  0  0
 18 20  1  0  0  0  0
 18 51  1  0  0  0  0
 19 21  2  0  0  0  0
 19 44  1  0  0  0  0
 20 22  2  0  0  0  0
 20 45  1  0  0  0  0
 21 23  1  0  0  0  0
 21 46  1  0  0  0  0
 22 24  1  0  0  0  0
 22 50  1  0  0  0  0
 23 25  2  0  0  0  0
 23 47  1  0  0  0  0
 24 26  2  0  0  0  0
 24 55  1  0  0  0  0
 25 48  1  0  0  0  0
 26 49  1  0  0  0  0
 51 52  1  0  0  0  0
 51 53  1  0  0  0  0
 51 54  1  0  0  0  0
 55 56  1  0  0  0  0
 55 57  1  0  0  0  0
 55 58  1  0  0  0  0
M  CHG  1  11   1
M  END
$$$$
