ejm_49
 OpenBabel02232411173D
Structure written by MMmdl.
 39 41  0  0  0  0  0  0  0  0999 V2000
   -1.4860   21.4950  -27.6290 C   0  0  0  0  0  0  0  0  0  0  0  0
   -1.0550   22.5840  -28.3910 C   0  0  0  0  0  0  0  0  0  0  0  0
   -1.8940   23.1020  -29.3810 C   0  0  0  0  0  0  0  0  0  0  0  0
   -3.1510   22.5460  -29.6460 C   0  0  0  0  0  0  0  0  0  0  0  0
   -3.5670   21.4700  -28.8470 C   0  0  0  0  0  0  0  0  0  0  0  0
   -2.7500   20.9400  -27.8490 C   0  0  0  0  0  0  0  0  0  0  0  0
   -5.1230   20.8030  -29.1080 Cl  0  0  0  0  0  0  0  0  0  0  0  0
   -4.0520   23.0170  -30.7520 C   0  0  0  0  0  0  0  0  0  0  0  0
   -4.3960   22.3120  -31.6740 O   0  0  0  0  0  0  0  0  0  0  0  0
   -4.4750   24.3490  -30.5730 N   0  0  0  0  0  0  0  0  0  0  0  0
   -5.2950   25.1180  -31.4440 C   0  0  0  0  0  0  0  0  0  0  0  0
   -5.9010   24.6250  -32.6110 C   0  0  0  0  0  0  0  0  0  0  0  0
   -6.6910   25.5040  -33.3670 C   0  0  0  0  0  0  0  0  0  0  0  0
   -6.8570   26.8190  -33.0680 N   0  0  0  0  0  0  0  0  0  0  0  0
   -6.2390   27.2900  -31.9310 C   0  0  0  0  0  0  0  0  0  0  0  0
   -5.4950   26.4630  -31.0780 C   0  0  0  0  0  0  0  0  0  0  0  0
   -6.3920   28.6900  -31.6600 N   0  0  0  0  0  0  0  0  0  0  0  0
   -5.3940   29.4080  -30.9600 C   0  0  0  0  0  0  0  0  0  0  0  0
   -4.4270   28.8030  -30.5190 O   0  0  0  0  0  0  0  0  0  0  0  0
   -1.3530   24.4750  -30.2520 Cl  0  0  0  0  0  0  0  0  0  0  0  0
   -0.8360   21.0840  -26.8490 H   0  0  0  0  0  0  0  0  0  0  0  0
   -0.0740   23.0250  -28.1930 H   0  0  0  0  0  0  0  0  0  0  0  0
   -3.0820   20.1080  -27.2270 H   0  0  0  0  0  0  0  0  0  0  0  0
   -4.1120   24.8510  -29.7400 H   0  0  0  0  0  0  0  0  0  0  0  0
   -5.7880   23.5840  -32.9250 H   0  0  0  0  0  0  0  0  0  0  0  0
   -7.2140   25.1400  -34.2660 H   0  0  0  0  0  0  0  0  0  0  0  0
   -5.0540   26.8560  -30.1550 H   0  0  0  0  0  0  0  0  0  0  0  0
   -7.2310   29.1510  -32.0630 H   0  0  0  0  0  0  0  0  0  0  0  0
   -5.4760   33.6280  -30.1600 C   0  0  0  0  0  0  0  0  0  0  0  0
   -6.5570   33.0590  -30.8370 C   0  0  0  0  0  0  0  0  0  0  0  0
   -6.5890   31.6890  -31.1190 C   0  0  0  0  0  0  0  0  0  0  0  0
   -5.5130   30.8810  -30.7370 C   0  0  0  0  0  0  0  0  0  0  0  0
   -4.4200   31.4600  -30.0570 C   0  0  0  0  0  0  0  0  0  0  0  0
   -4.4040   32.8230  -29.7660 C   0  0  0  0  0  0  0  0  0  0  0  0
   -5.4730   34.7000  -29.9340 H   0  0  0  0  0  0  0  0  0  0  0  0
   -7.3810   33.7090  -31.1420 H   0  0  0  0  0  0  0  0  0  0  0  0
   -7.4610   31.2810  -31.6310 H   0  0  0  0  0  0  0  0  0  0  0  0
   -3.5710   30.8370  -29.7430 H   0  0  0  0  0  0  0  0  0  0  0  0
   -3.5590   33.2630  -29.2270 H   0  0  0  0  0  0  0  0  0  0  0  0
  1  2  2  0  0  0  0
  1  6  1  0  0  0  0
  1 21  1  0  0  0  0
  2  3  1  0  0  0  0
  2 22  1  0  0  0  0
  3  4  2  0  0  0  0
  3 20  1  0  0  0  0
  4  5  1  0  0  0  0
  4  8  1  0  0  0  0
  5  6  2  0  0  0  0
  5  7  1  0  0  0  0
  6 23  1  0  0  0  0
  8  9  2  0  0  0  0
  8 10  1  0  0  0  0
 10 11  1  0  0  0  0
 10 24  1  0  0  0  0
 11 12  2  0  0  0  0
 11 16  1  0  0  0  0
 12 13  1  0  0  0  0
 12 25  1  0  0  0  0
 13 14  2  0  0  0  0
 13 26  1  0  0  0  0
 14 15  1  0  0  0  0
 15 16  2  0  0  0  0
 15 17  1  0  0  0  0
 16 27  1  0  0  0  0
 17 18  1  0  0  0  0
 17 28  1  0  0  0  0
 18 19  2  0  0  0  0
 18 32  1  0  0  0  0
 29 30  2  0  0  0  0
 29 34  1  0  0  0  0
 29 35  1  0  0  0  0
 30 31  1  0  0  0  0
 30 36  1  0  0  0  0
 31 32  2  0  0  0  0
 31 37  1  0  0  0  0
 32 33  1  0  0  0  0
 33 34  2  0  0  0  0
 33 38  1  0  0  0  0
 34 39  1  0  0  0  0
M  END
$$$$
