p38a_3fmh
 OpenBabel02232411163D
Structure written by MMmdl.
 46 49  0  0  1  0  0  0  0  0999 V2000
   38.2700   37.2890   14.7160 F   0  0  0  0  0  0  0  0  0  0  0  0
   37.7140   36.7020   15.7720 C   0  0  0  0  0  0  0  0  0  0  0  0
   38.4150   36.6930   16.9800 C   0  0  0  0  0  0  0  0  0  0  0  0
   37.7990   36.1600   18.1180 C   0  0  0  0  0  0  0  0  0  0  0  0
   36.4340   36.1540   15.6180 C   0  0  0  0  0  0  0  0  0  0  0  0
   35.8590   35.5930   16.7530 C   0  0  0  0  0  0  0  0  0  0  0  0
   34.6660   35.0180   16.6920 F   0  0  0  0  0  0  0  0  0  0  0  0
   36.5220   35.6070   17.9970 C   0  0  0  0  0  0  0  0  0  0  0  0
   35.8940   34.9240   19.0460 O   0  0  0  0  0  0  0  0  0  0  0  0
   35.2500   35.7310   19.9820 C   0  0  0  0  0  0  0  0  0  0  0  0
   34.4030   34.8550   20.8370 C   0  0  0  0  0  0  0  0  0  0  0  0
   34.2580   33.6630   20.6870 O   0  0  0  0  0  0  0  0  0  0  0  0
   33.7120   35.5420   21.8990 N   0  0  0  0  0  0  0  0  0  0  0  0
   32.7810   34.7350   22.7360 C   0  0  0  0  0  0  0  0  0  0  0  0
   33.9120   36.9080   22.1490 C   0  0  0  0  0  0  0  0  0  0  0  0
   33.3810   37.4600   23.2910 N   0  0  0  0  0  0  0  0  0  0  0  0
   35.3530   37.0700   20.1310 C   0  0  0  0  0  0  0  0  0  0  0  0
   34.6780   37.6960   21.2350 C   0  0  0  0  0  0  0  0  0  0  0  0
   34.7750   39.0860   21.5020 C   0  0  0  0  0  0  0  0  0  0  0  0
   34.2710   39.6510   22.6100 N   0  0  0  0  0  0  0  0  0  0  0  0
   33.6160   38.8010   23.5170 C   0  0  0  0  0  0  0  0  0  0  0  0
   33.1680   39.3760   24.6890 N   0  0  0  0  0  0  0  0  0  0  0  0
   32.5950   38.6020   25.8210 C   0  0  2  0  0  0  0  0  0  0  0  0
   31.6840   39.5410   26.6190 C   0  0  0  0  0  0  0  0  0  0  0  0
   33.7160   38.0520   26.7590 C   0  0  0  0  0  0  0  0  0  0  0  0
   34.3220   36.8120   26.2360 N   0  0  0  0  0  0  0  0  0  0  0  0
   33.7310   35.5910   26.3770 N   0  0  0  0  0  0  0  0  0  0  0  0
   34.5210   34.7500   25.6540 C   0  0  0  0  0  0  0  0  0  0  0  0
   35.5800   35.4970   25.0700 N   0  0  0  0  0  0  0  0  0  0  0  0
   35.4330   36.7320   25.4310 N   0  0  0  0  0  0  0  0  0  0  0  0
   39.4170   37.1210   17.0560 H   0  0  0  0  0  0  0  0  0  0  0  0
   38.3130   36.2050   19.0820 H   0  0  0  0  0  0  0  0  0  0  0  0
   35.9080   36.1850   14.6620 H   0  0  0  0  0  0  0  0  0  0  0  0
   32.2790   35.3640   23.5190 H   0  0  0  0  0  0  0  0  0  0  0  0
   31.9810   34.2950   22.0800 H   0  0  0  0  0  0  0  0  0  0  0  0
   33.3380   33.9040   23.2420 H   0  0  0  0  0  0  0  0  0  0  0  0
   35.9430   37.7030   19.4630 H   0  0  0  0  0  0  0  0  0  0  0  0
   35.2830   39.7560   20.7880 H   0  0  0  0  0  0  0  0  0  0  0  0
   33.4160   40.3640   24.9070 H   0  0  0  0  0  0  0  0  0  0  0  0
   31.9790   37.7450   25.4270 H   0  0  0  0  0  0  0  0  0  0  0  0
   31.0880   38.9550   27.3580 H   0  0  0  0  0  0  0  0  0  0  0  0
   32.2740   40.3130   27.1660 H   0  0  0  0  0  0  0  0  0  0  0  0
   30.9870   40.0530   25.9180 H   0  0  0  0  0  0  0  0  0  0  0  0
   34.5150   38.8320   26.9080 H   0  0  0  0  0  0  0  0  0  0  0  0
   33.2570   37.8350   27.7700 H   0  0  0  0  0  0  0  0  0  0  0  0
   34.3820   33.6750   25.5480 H   0  0  0  0  0  0  0  0  0  0  0  0
  1  2  1  0  0  0  0
  2  3  2  0  0  0  0
  2  5  1  0  0  0  0
  3  4  1  0  0  0  0
  3 31  1  0  0  0  0
  4  8  2  0  0  0  0
  4 32  1  0  0  0  0
  5  6  2  0  0  0  0
  5 33  1  0  0  0  0
  6  7  1  0  0  0  0
  6  8  1  0  0  0  0
  8  9  1  0  0  0  0
  9 10  1  0  0  0  0
 10 11  1  0  0  0  0
 10 17  2  0  0  0  0
 11 12  2  0  0  0  0
 11 13  1  0  0  0  0
 13 14  1  0  0  0  0
 13 15  1  0  0  0  0
 14 34  1  0  0  0  0
 14 35  1  0  0  0  0
 14 36  1  0  0  0  0
 15 16  2  0  0  0  0
 15 18  1  0  0  0  0
 16 21  1  0  0  0  0
 17 18  1  0  0  0  0
 17 37  1  0  0  0  0
 18 19  2  0  0  0  0
 19 20  1  0  0  0  0
 19 38  1  0  0  0  0
 20 21  2  0  0  0  0
 21 22  1  0  0  0  0
 22 23  1  0  0  0  0
 22 39  1  0  0  0  0
 23 24  1  0  0  0  0
 23 25  1  0  0  0  0
 23 40  1  6  0  0  0
 24 41  1  0  0  0  0
 24 42  1  0  0  0  0
 24 43  1  0  0  0  0
 25 26  1  0  0  0  0
 25 44  1  0  0  0  0
 25 45  1  0  0  0  0
 26 27  1  0  0  0  0
 26 30  1  0  0  0  0
 27 28  2  0  0  0  0
 28 29  1  0  0  0  0
 28 46  1  0  0  0  0
 29 30  2  0  0  0  0
M  END
$$$$
