18639-1
 OpenBabel02232411163D
Structure written by MMmdl.
 48 49  0  0  0  0  0  0  0  0999 V2000
   24.4340   10.9200   30.7520 C   0  0  0  0  0  0  0  0  0  0  0  0
   23.1050   11.2720   30.1170 C   0  0  0  0  0  0  0  0  0  0  0  0
   22.0310   11.3280   31.1310 O   0  0  0  0  0  0  0  0  0  0  0  0
   21.4480   10.1780   31.5380 C   0  0  0  0  0  0  0  0  0  0  0  0
   21.9300    8.9900   31.1050 N   0  0  0  0  0  0  0  0  0  0  0  0
   21.2370    7.8460   31.4700 C   0  0  0  0  0  0  0  0  0  0  0  0
   20.1000    7.8770   32.2690 C   0  0  0  0  0  0  0  0  0  0  0  0
   19.6080    9.1270   32.7320 C   0  0  0  0  0  0  0  0  0  0  0  0
   18.4740    9.1620   33.5020 N   0  0  0  0  0  0  0  0  0  0  0  0
   20.2970   10.3290   32.3690 C   0  0  0  0  0  0  0  0  0  0  0  0
   19.8820   11.6260   32.7360 C   0  0  0  0  0  0  0  0  0  0  0  0
   19.5930   12.7180   32.9970 N   0  0  0  0  0  0  0  0  0  0  0  0
   21.8280    6.6830   30.9230 N   0  0  0  0  0  0  0  0  0  0  0  0
   21.2620    5.3920   30.8710 C   0  0  0  0  0  0  0  0  0  0  0  0
   20.1880    5.1200   31.3640 O   0  0  0  0  0  0  0  0  0  0  0  0
   22.0950    4.4010   30.0660 C   0  0  0  0  0  0  0  0  0  0  0  0
   23.4680    4.1500   30.6180 C   0  0  0  0  0  0  0  0  0  0  0  0
   24.5530    5.0240   30.2960 C   0  0  0  0  0  0  0  0  0  0  0  0
   24.1790    6.0750   29.4680 O   0  0  0  0  0  0  0  0  0  0  0  0
   25.1260    7.1650   29.2900 C   0  0  0  0  0  0  0  0  0  0  0  0
   25.8390    4.7910   30.7570 C   0  0  0  0  0  0  0  0  0  0  0  0
   26.0870    3.6740   31.5840 C   0  0  0  0  0  0  0  0  0  0  0  0
   27.4460    3.4300   32.0740 N   0  3  0  0  0  0  0  0  0  0  0  0
   27.5970    2.6240   32.9800 O   0  5  0  0  0  0  0  0  0  0  0  0
   28.3740    4.0380   31.5530 O   0  0  0  0  0  0  0  0  0  0  0  0
   25.0260    2.7980   31.9110 C   0  0  0  0  0  0  0  0  0  0  0  0
   23.7250    3.0440   31.4130 C   0  0  0  0  0  0  0  0  0  0  0  0
   25.3900    1.7590   32.7140 O   0  0  0  0  0  0  0  0  0  0  0  0
   24.4050    0.7100   32.9540 C   0  0  0  0  0  0  0  0  0  0  0  0
   25.2210   10.8760   29.9570 H   0  0  0  0  0  0  0  0  0  0  0  0
   24.7340   11.6800   31.5030 H   0  0  0  0  0  0  0  0  0  0  0  0
   24.3930    9.9180   31.2420 H   0  0  0  0  0  0  0  0  0  0  0  0
   23.0740   12.3290   29.7590 H   0  0  0  0  0  0  0  0  0  0  0  0
   22.8190   10.5540   29.3150 H   0  0  0  0  0  0  0  0  0  0  0  0
   19.5680    6.9590   32.5280 H   0  0  0  0  0  0  0  0  0  0  0  0
   17.9740    8.2880   33.7540 H   0  0  0  0  0  0  0  0  0  0  0  0
   18.0610   10.0460   33.8000 H   0  0  0  0  0  0  0  0  0  0  0  0
   22.7360    6.8420   30.4170 H   0  0  0  0  0  0  0  0  0  0  0  0
   21.5320    3.4300   30.0110 H   0  0  0  0  0  0  0  0  0  0  0  0
   22.1970    4.8090   29.0200 H   0  0  0  0  0  0  0  0  0  0  0  0
   25.4830    7.5430   30.2720 H   0  0  0  0  0  0  0  0  0  0  0  0
   25.9570    6.8190   28.6390 H   0  0  0  0  0  0  0  0  0  0  0  0
   24.4890    7.9230   28.7760 H   0  0  0  0  0  0  0  0  0  0  0  0
   26.6730    5.4470   30.4790 H   0  0  0  0  0  0  0  0  0  0  0  0
   22.9170    2.3470   31.6510 H   0  0  0  0  0  0  0  0  0  0  0  0
   25.0040   -0.0220   33.5480 H   0  0  0  0  0  0  0  0  0  0  0  0
   23.5580    1.1090   33.5500 H   0  0  0  0  0  0  0  0  0  0  0  0
   24.0770    0.2660   31.9890 H   0  0  0  0  0  0  0  0  0  0  0  0
  1  2  1  0  0  0  0
  1 30  1  0  0  0  0
  1 31  1  0  0  0  0
  1 32  1  0  0  0  0
  2  3  1  0  0  0  0
  2 33  1  0  0  0  0
  2 34  1  0  0  0  0
  3  4  1  0  0  0  0
  4 10  2  0  0  0  0
  4  5  1  0  0  0  0
  5  6  2  0  0  0  0
  6  7  1  0  0  0  0
  6 13  1  0  0  0  0
  7  8  2  0  0  0  0
  7 35  1  0  0  0  0
  8  9  1  0  0  0  0
  8 10  1  0  0  0  0
  9 36  1  0  0  0  0
  9 37  1  0  0  0  0
 10 11  1  0  0  0  0
 11 12  3  0  0  0  0
 13 14  1  0  0  0  0
 13 38  1  0  0  0  0
 14 15  2  0  0  0  0
 14 16  1  0  0  0  0
 16 17  1  0  0  0  0
 16 39  1  0  0  0  0
 16 40  1  0  0  0  0
 17 27  2  0  0  0  0
 17 18  1  0  0  0  0
 18 19  1  0  0  0  0
 18 21  2  0  0  0  0
 19 20  1  0  0  0  0
 20 41  1  0  0  0  0
 20 42  1  0  0  0  0
 20 43  1  0  0  0  0
 21 22  1  0  0  0  0
 21 44  1  0  0  0  0
 22 23  1  0  0  0  0
 22 26  2  0  0  0  0
 23 24  1  0  0  0  0
 23 25  2  0  0  0  0
 26 27  1  0  0  0  0
 26 28  1  0  0  0  0
 27 45  1  0  0  0  0
 28 29  1  0  0  0  0
 29 46  1  0  0  0  0
 29 47  1  0  0  0  0
 29 48  1  0  0  0  0
M  CHG  2  23   1  24  -1
M  END
$$$$
