p38a_2e
 OpenBabel02232411163D
Structure written by MMmdl.
 46 49  0  0  0  0  0  0  0  0999 V2000
   32.5130   39.7290   27.1660 C   0  0  0  0  0  0  0  0  0  0  0  0
   32.4810   39.1010   28.5650 C   0  0  0  0  0  0  0  0  0  0  0  0
   34.8230   38.5190   28.4620 C   0  0  0  0  0  0  0  0  0  0  0  0
   34.9710   39.1120   27.0560 C   0  0  0  0  0  0  0  0  0  0  0  0
   38.2640   36.4540   17.2830 C   0  0  0  0  0  0  0  0  0  0  0  0
   33.7730   39.1730   29.2110 O   0  0  0  0  0  0  0  0  0  0  0  0
   34.5420   35.0570   21.3120 C   0  0  0  0  0  0  0  0  0  0  0  0
   37.4820   36.0130   18.3520 C   0  0  0  0  0  0  0  0  0  0  0  0
   34.0710   39.1530   23.8440 C   0  0  0  0  0  0  0  0  0  0  0  0
   33.6140   39.0580   26.3170 C   0  0  0  0  0  0  0  0  0  0  0  0
   34.6980   37.9320   21.4510 C   0  0  0  0  0  0  0  0  0  0  0  0
   35.0750   37.2620   20.2360 C   0  0  0  0  0  0  0  0  0  0  0  0
   37.6590   36.5730   16.0260 C   0  0  0  0  0  0  0  0  0  0  0  0
   36.3250   36.2330   15.7800 C   0  0  0  0  0  0  0  0  0  0  0  0
   35.5470   35.7800   16.8470 C   0  0  0  0  0  0  0  0  0  0  0  0
   34.3490   37.1700   22.6060 C   0  0  0  0  0  0  0  0  0  0  0  0
   34.6670   39.3460   21.5830 C   0  0  0  0  0  0  0  0  0  0  0  0
   35.0280   35.9100   20.1940 C   0  0  0  0  0  0  0  0  0  0  0  0
   36.1420   35.6800   18.1110 C   0  0  0  0  0  0  0  0  0  0  0  0
   33.9330   35.0010   23.7630 C   0  0  0  0  0  0  0  0  0  0  0  0
   37.9050   35.9620   19.3570 H   0  0  0  0  0  0  0  0  0  0  0  0
   38.3730   37.0810   15.0210 F   0  0  0  0  0  0  0  0  0  0  0  0
   35.3540   35.0900   19.1210 O   0  0  0  0  0  0  0  0  0  0  0  0
   34.3650   39.9680   22.7320 N   0  0  0  0  0  0  0  0  0  0  0  0
   34.3550   33.8610   21.2580 O   0  0  0  0  0  0  0  0  0  0  0  0
   34.2860   35.7690   22.5360 N   0  0  0  0  0  0  0  0  0  0  0  0
   34.0570   37.7720   23.8040 N   0  0  0  0  0  0  0  0  0  0  0  0
   33.7070   39.7830   25.0130 N   0  0  0  0  0  0  0  0  0  0  0  0
   31.5220   39.5930   26.6710 H   0  0  0  0  0  0  0  0  0  0  0  0
   32.7160   40.8230   27.2540 H   0  0  0  0  0  0  0  0  0  0  0  0
   31.8370   39.6900   29.2570 H   0  0  0  0  0  0  0  0  0  0  0  0
   32.1590   38.0340   28.5160 H   0  0  0  0  0  0  0  0  0  0  0  0
   34.6030   37.4270   28.4120 H   0  0  0  0  0  0  0  0  0  0  0  0
   35.7230   38.7270   29.0850 H   0  0  0  0  0  0  0  0  0  0  0  0
   35.3200   40.1700   27.1250 H   0  0  0  0  0  0  0  0  0  0  0  0
   35.7330   38.5250   26.4900 H   0  0  0  0  0  0  0  0  0  0  0  0
   39.3090   36.7350   17.4350 H   0  0  0  0  0  0  0  0  0  0  0  0
   33.3310   37.9850   26.1250 H   0  0  0  0  0  0  0  0  0  0  0  0
   35.3980   37.8720   19.3880 H   0  0  0  0  0  0  0  0  0  0  0  0
   35.8830   36.3400   14.7870 H   0  0  0  0  0  0  0  0  0  0  0  0
   34.4920   35.5370   16.6950 H   0  0  0  0  0  0  0  0  0  0  0  0
   34.8950   39.9820   20.7110 H   0  0  0  0  0  0  0  0  0  0  0  0
   34.6630   35.2390   24.5850 H   0  0  0  0  0  0  0  0  0  0  0  0
   32.9040   35.2830   24.1140 H   0  0  0  0  0  0  0  0  0  0  0  0
   33.9620   33.9000   23.5560 H   0  0  0  0  0  0  0  0  0  0  0  0
   33.8130   40.8140   25.0890 H   0  0  0  0  0  0  0  0  0  0  0  0
  1  2  1  0  0  0  0
  1 10  1  0  0  0  0
  1 29  1  0  0  0  0
  1 30  1  0  0  0  0
  2  6  1  0  0  0  0
  2 31  1  0  0  0  0
  2 32  1  0  0  0  0
  3  4  1  0  0  0  0
  3  6  1  0  0  0  0
  3 33  1  0  0  0  0
  3 34  1  0  0  0  0
  4 10  1  0  0  0  0
  4 35  1  0  0  0  0
  4 36  1  0  0  0  0
  5  8  2  0  0  0  0
  5 13  1  0  0  0  0
  5 37  1  0  0  0  0
  7 18  1  0  0  0  0
  7 25  2  0  0  0  0
  7 26  1  0  0  0  0
  8 19  1  0  0  0  0
  8 21  1  0  0  0  0
  9 24  2  0  0  0  0
  9 27  1  0  0  0  0
  9 28  1  0  0  0  0
 10 28  1  0  0  0  0
 10 38  1  0  0  0  0
 11 12  1  0  0  0  0
 11 16  1  0  0  0  0
 11 17  2  0  0  0  0
 12 18  2  0  0  0  0
 12 39  1  0  0  0  0
 13 14  2  0  0  0  0
 13 22  1  0  0  0  0
 14 15  1  0  0  0  0
 14 40  1  0  0  0  0
 15 19  2  0  0  0  0
 15 41  1  0  0  0  0
 16 26  1  0  0  0  0
 16 27  2  0  0  0  0
 17 24  1  0  0  0  0
 17 42  1  0  0  0  0
 18 23  1  0  0  0  0
 19 23  1  0  0  0  0
 20 26  1  0  0  0  0
 20 43  1  0  0  0  0
 20 44  1  0  0  0  0
 20 45  1  0  0  0  0
 28 46  1  0  0  0  0
M  END
$$$$
