p38a_2u
 OpenBabel02232411163D
Structure written by MMmdl.
 64 68  0  0  0  0  0  0  0  0999 V2000
   38.2160   36.4720   17.2580 C   0  0  0  0  0  0  0  0  0  0  0  0
   34.5630   35.2180   21.4860 C   0  0  0  0  0  0  0  0  0  0  0  0
   37.4540   36.0640   18.3500 C   0  0  0  0  0  0  0  0  0  0  0  0
   34.1240   39.3860   23.8960 C   0  0  0  0  0  0  0  0  0  0  0  0
   34.6970   38.0920   21.5280 C   0  0  0  0  0  0  0  0  0  0  0  0
   35.0560   37.3940   20.3240 C   0  0  0  0  0  0  0  0  0  0  0  0
   37.5400   36.5980   16.0370 C   0  0  0  0  0  0  0  0  0  0  0  0
   36.1810   36.3120   15.8770 C   0  0  0  0  0  0  0  0  0  0  0  0
   35.4400   35.8980   16.9890 C   0  0  0  0  0  0  0  0  0  0  0  0
   34.3940   37.3610   22.7140 C   0  0  0  0  0  0  0  0  0  0  0  0
   34.6390   39.5100   21.6130 C   0  0  0  0  0  0  0  0  0  0  0  0
   35.0330   36.0420   20.3330 C   0  0  0  0  0  0  0  0  0  0  0  0
   36.0810   35.7650   18.2240 C   0  0  0  0  0  0  0  0  0  0  0  0
   38.0220   35.9530   19.5430 F   0  0  0  0  0  0  0  0  0  0  0  0
   35.3780   35.1850   19.2900 O   0  0  0  0  0  0  0  0  0  0  0  0
   34.3670   40.1680   22.7490 N   0  0  0  0  0  0  0  0  0  0  0  0
   34.3660   34.0240   21.4330 O   0  0  0  0  0  0  0  0  0  0  0  0
   34.3520   35.9500   22.7070 N   0  0  0  0  0  0  0  0  0  0  0  0
   34.1280   38.0050   23.8940 N   0  0  0  0  0  0  0  0  0  0  0  0
   33.7970   40.0350   25.0640 N   0  0  0  0  0  0  0  0  0  0  0  0
   39.2780   36.7180   17.3560 H   0  0  0  0  0  0  0  0  0  0  0  0
   35.3430   37.9810   19.4500 H   0  0  0  0  0  0  0  0  0  0  0  0
   35.6890   36.4210   14.9070 H   0  0  0  0  0  0  0  0  0  0  0  0
   34.3680   35.6960   16.8860 H   0  0  0  0  0  0  0  0  0  0  0  0
   34.8170   40.1160   20.7100 H   0  0  0  0  0  0  0  0  0  0  0  0
   33.9070   41.0650   25.1290 H   0  0  0  0  0  0  0  0  0  0  0  0
   38.2210   37.0490   14.9860 F   0  0  0  0  0  0  0  0  0  0  0  0
   32.6450   39.4360   28.6580 C   0  0  0  0  0  0  0  0  0  0  0  0
   32.6860   40.0720   27.2630 C   0  0  0  0  0  0  0  0  0  0  0  0
   33.6910   39.3140   26.3710 C   0  0  0  0  0  0  0  0  0  0  0  0
   35.0710   39.2350   27.0600 C   0  0  0  0  0  0  0  0  0  0  0  0
   34.9160   38.6400   28.4650 C   0  0  0  0  0  0  0  0  0  0  0  0
   33.9590   39.3800   29.2580 O   0  0  0  0  0  0  0  0  0  0  0  0
   32.2220   38.4060   28.6140 H   0  0  0  0  0  0  0  0  0  0  0  0
   32.0860   40.0810   29.3750 H   0  0  0  0  0  0  0  0  0  0  0  0
   32.9900   41.1420   27.3550 H   0  0  0  0  0  0  0  0  0  0  0  0
   31.6720   40.0330   26.7990 H   0  0  0  0  0  0  0  0  0  0  0  0
   33.3040   38.2730   26.1800 H   0  0  0  0  0  0  0  0  0  0  0  0
   35.7540   38.5860   26.4620 H   0  0  0  0  0  0  0  0  0  0  0  0
   35.5180   40.2540   27.1270 H   0  0  0  0  0  0  0  0  0  0  0  0
   34.5940   37.5740   28.4120 H   0  0  0  0  0  0  0  0  0  0  0  0
   35.8540   38.7540   29.0570 H   0  0  0  0  0  0  0  0  0  0  0  0
   34.0000   32.8560   24.8980 C   0  0  0  0  0  0  0  0  0  0  0  0
   34.8120   34.0420   24.3290 C   0  0  0  0  0  0  0  0  0  0  0  0
   33.9130   35.2440   23.9770 C   0  0  0  0  0  0  0  0  0  0  0  0
   32.4300   34.8460   23.8650 C   0  0  0  0  0  0  0  0  0  0  0  0
   31.9550   34.2910   25.2220 C   0  0  0  0  0  0  0  0  0  0  0  0
   34.7190   32.2140   25.4700 H   0  0  0  0  0  0  0  0  0  0  0  0
   33.5680   32.2610   24.0510 H   0  0  0  0  0  0  0  0  0  0  0  0
   35.3790   33.6670   23.4470 H   0  0  0  0  0  0  0  0  0  0  0  0
   35.5490   34.3760   25.1020 H   0  0  0  0  0  0  0  0  0  0  0  0
   34.0130   35.9850   24.8290 H   0  0  0  0  0  0  0  0  0  0  0  0
   31.8100   35.7450   23.6230 H   0  0  0  0  0  0  0  0  0  0  0  0
   32.2810   34.0920   23.0590 H   0  0  0  0  0  0  0  0  0  0  0  0
   31.8770   35.1470   25.9530 H   0  0  0  0  0  0  0  0  0  0  0  0
   30.9450   33.8280   25.0720 H   0  0  0  0  0  0  0  0  0  0  0  0
   32.9260   33.3230   25.8230 N   0  0  0  0  0  0  0  0  0  0  0  0
   32.3240   32.2560   27.0300 S   0  0  0  0  0  0  0  0  0  0  0  0
   31.5350   31.1740   26.4080 O   0  0  0  0  0  0  0  0  0  0  0  0
   31.4950   33.0540   27.9560 O   0  0  0  0  0  0  0  0  0  0  0  0
   33.7320   31.6380   27.8270 C   0  0  0  0  0  0  0  0  0  0  0  0
   34.5110   32.4350   27.9850 H   0  0  0  0  0  0  0  0  0  0  0  0
   33.4870   31.2490   28.8540 H   0  0  0  0  0  0  0  0  0  0  0  0
   34.2110   30.7850   27.2820 H   0  0  0  0  0  0  0  0  0  0  0  0
  1  3  2  0  0  0  0
  1  7  1  0  0  0  0
  1 21  1  0  0  0  0
  2 12  1  0  0  0  0
  2 17  2  0  0  0  0
  2 18  1  0  0  0  0
  3 13  1  0  0  0  0
  3 14  1  0  0  0  0
  4 16  2  0  0  0  0
  4 19  1  0  0  0  0
  4 20  1  0  0  0  0
  5  6  1  0  0  0  0
  5 10  1  0  0  0  0
  5 11  2  0  0  0  0
  6 12  2  0  0  0  0
  6 22  1  0  0  0  0
  7  8  2  0  0  0  0
  7 27  1  0  0  0  0
  8  9  1  0  0  0  0
  8 23  1  0  0  0  0
  9 13  2  0  0  0  0
  9 24  1  0  0  0  0
 10 18  1  0  0  0  0
 10 19  2  0  0  0  0
 11 16  1  0  0  0  0
 11 25  1  0  0  0  0
 12 15  1  0  0  0  0
 13 15  1  0  0  0  0
 18 45  1  0  0  0  0
 20 26  1  0  0  0  0
 20 30  1  0  0  0  0
 28 29  1  0  0  0  0
 28 33  1  0  0  0  0
 28 34  1  0  0  0  0
 28 35  1  0  0  0  0
 29 30  1  0  0  0  0
 29 36  1  0  0  0  0
 29 37  1  0  0  0  0
 30 31  1  0  0  0  0
 30 38  1  0  0  0  0
 31 32  1  0  0  0  0
 31 39  1  0  0  0  0
 31 40  1  0  0  0  0
 32 33  1  0  0  0  0
 32 41  1  0  0  0  0
 32 42  1  0  0  0  0
 43 44  1  0  0  0  0
 43 48  1  0  0  0  0
 43 49  1  0  0  0  0
 43 57  1  0  0  0  0
 44 45  1  0  0  0  0
 44 50  1  0  0  0  0
 44 51  1  0  0  0  0
 45 46  1  0  0  0  0
 45 52  1  0  0  0  0
 46 47  1  0  0  0  0
 46 53  1  0  0  0  0
 46 54  1  0  0  0  0
 47 55  1  0  0  0  0
 47 56  1  0  0  0  0
 47 57  1  0  0  0  0
 57 58  1  0  0  0  0
 58 59  2  0  0  0  0
 58 60  2  0  0  0  0
 58 61  1  0  0  0  0
 61 62  1  0  0  0  0
 61 63  1  0  0  0  0
 61 64  1  0  0  0  0
M  END
$$$$
