p38a_2ee
 OpenBabel02232411163D
Structure written by MMmdl.
 52 55  0  0  0  0  0  0  0  0999 V2000
   36.3960   36.1090   15.7140 C   0  0  0  0  0  0  0  0  0  0  0  0
   34.4660   34.9440   21.1080 C   0  0  0  0  0  0  0  0  0  0  0  0
   35.7730   35.5980   16.8480 C   0  0  0  0  0  0  0  0  0  0  0  0
   33.8290   38.9460   23.7530 C   0  0  0  0  0  0  0  0  0  0  0  0
   34.7390   37.7990   21.4120 C   0  0  0  0  0  0  0  0  0  0  0  0
   35.2990   37.1560   20.2540 C   0  0  0  0  0  0  0  0  0  0  0  0
   37.6840   36.6300   15.8910 C   0  0  0  0  0  0  0  0  0  0  0  0
   38.3540   36.6290   17.1170 C   0  0  0  0  0  0  0  0  0  0  0  0
   37.6910   36.1460   18.2510 C   0  0  0  0  0  0  0  0  0  0  0  0
   34.1070   37.0200   22.4260 C   0  0  0  0  0  0  0  0  0  0  0  0
   34.8060   39.2010   21.6350 C   0  0  0  0  0  0  0  0  0  0  0  0
   35.1960   35.8120   20.1430 C   0  0  0  0  0  0  0  0  0  0  0  0
   36.4010   35.6290   18.1110 C   0  0  0  0  0  0  0  0  0  0  0  0
   33.2450   34.8580   23.3170 C   0  0  0  0  0  0  0  0  0  0  0  0
   34.5670   35.0530   16.7670 F   0  0  0  0  0  0  0  0  0  0  0  0
   35.7140   34.9860   19.1480 O   0  0  0  0  0  0  0  0  0  0  0  0
   34.3770   39.7870   22.7620 N   0  0  0  0  0  0  0  0  0  0  0  0
   34.2900   33.7520   20.9820 O   0  0  0  0  0  0  0  0  0  0  0  0
   33.9490   35.6330   22.2580 N   0  0  0  0  0  0  0  0  0  0  0  0
   33.6470   37.5840   23.5880 N   0  0  0  0  0  0  0  0  0  0  0  0
   33.4640   39.5190   24.9460 N   0  0  0  0  0  0  0  0  0  0  0  0
   35.8990   36.1260   14.7420 H   0  0  0  0  0  0  0  0  0  0  0  0
   35.8030   37.7810   19.5130 H   0  0  0  0  0  0  0  0  0  0  0  0
   39.3680   37.0270   17.2050 H   0  0  0  0  0  0  0  0  0  0  0  0
   38.1790   36.1990   19.2270 H   0  0  0  0  0  0  0  0  0  0  0  0
   35.2250   39.8600   20.8570 H   0  0  0  0  0  0  0  0  0  0  0  0
   33.8120   34.9290   24.2850 H   0  0  0  0  0  0  0  0  0  0  0  0
   32.2160   35.2800   23.4800 H   0  0  0  0  0  0  0  0  0  0  0  0
   33.1560   33.7820   23.0190 H   0  0  0  0  0  0  0  0  0  0  0  0
   33.5920   40.5390   25.0900 H   0  0  0  0  0  0  0  0  0  0  0  0
   38.2820   37.1830   14.8380 F   0  0  0  0  0  0  0  0  0  0  0  0
   33.1930   40.3850   27.9840 C   0  0  0  0  0  0  0  0  0  0  0  0
   32.1560   39.7560   27.0320 C   0  0  0  0  0  0  0  0  0  0  0  0
   32.7750   38.7530   26.0360 C   0  0  0  0  0  0  0  0  0  0  0  0
   33.7210   37.7690   26.7560 C   0  0  0  0  0  0  0  0  0  0  0  0
   34.7190   38.4650   27.6930 C   0  0  0  0  0  0  0  0  0  0  0  0
   34.0370   39.3700   28.6660 N   0  0  0  0  0  0  0  0  0  0  0  0
   32.6590   41.0300   28.7250 H   0  0  0  0  0  0  0  0  0  0  0  0
   33.8840   41.0470   27.3930 H   0  0  0  0  0  0  0  0  0  0  0  0
   31.6530   40.5780   26.4670 H   0  0  0  0  0  0  0  0  0  0  0  0
   31.3780   39.2180   27.6260 H   0  0  0  0  0  0  0  0  0  0  0  0
   31.9380   38.1610   25.5600 H   0  0  0  0  0  0  0  0  0  0  0  0
   33.0810   37.0560   27.3320 H   0  0  0  0  0  0  0  0  0  0  0  0
   34.2910   37.1690   26.0040 H   0  0  0  0  0  0  0  0  0  0  0  0
   35.3060   37.6920   28.2520 H   0  0  0  0  0  0  0  0  0  0  0  0
   35.4200   39.1030   27.0890 H   0  0  0  0  0  0  0  0  0  0  0  0
   33.7530   38.9140   29.9730 C   0  0  0  0  0  0  0  0  0  0  0  0
   34.3160   37.9040   30.3860 O   0  0  0  0  0  0  0  0  0  0  0  0
   32.8730   39.7520   30.8530 C   0  0  0  0  0  0  0  0  0  0  0  0
   31.8130   39.7500   30.4920 H   0  0  0  0  0  0  0  0  0  0  0  0
   32.8710   39.3620   31.9030 H   0  0  0  0  0  0  0  0  0  0  0  0
   33.2170   40.8180   30.8970 H   0  0  0  0  0  0  0  0  0  0  0  0
  1  3  2  0  0  0  0
  1  7  1  0  0  0  0
  1 22  1  0  0  0  0
  2 12  1  0  0  0  0
  2 18  2  0  0  0  0
  2 19  1  0  0  0  0
  3 13  1  0  0  0  0
  3 15  1  0  0  0  0
  4 17  2  0  0  0  0
  4 20  1  0  0  0  0
  4 21  1  0  0  0  0
  5  6  1  0  0  0  0
  5 10  1  0  0  0  0
  5 11  2  0  0  0  0
  6 12  2  0  0  0  0
  6 23  1  0  0  0  0
  7  8  2  0  0  0  0
  7 31  1  0  0  0  0
  8  9  1  0  0  0  0
  8 24  1  0  0  0  0
  9 13  2  0  0  0  0
  9 25  1  0  0  0  0
 10 19  1  0  0  0  0
 10 20  2  0  0  0  0
 11 17  1  0  0  0  0
 11 26  1  0  0  0  0
 12 16  1  0  0  0  0
 13 16  1  0  0  0  0
 14 19  1  0  0  0  0
 14 27  1  0  0  0  0
 14 28  1  0  0  0  0
 14 29  1  0  0  0  0
 21 30  1  0  0  0  0
 21 34  1  0  0  0  0
 32 33  1  0  0  0  0
 32 37  1  0  0  0  0
 32 38  1  0  0  0  0
 32 39  1  0  0  0  0
 33 34  1  0  0  0  0
 33 40  1  0  0  0  0
 33 41  1  0  0  0  0
 34 35  1  0  0  0  0
 34 42  1  0  0  0  0
 35 36  1  0  0  0  0
 35 43  1  0  0  0  0
 35 44  1  0  0  0  0
 36 37  1  0  0  0  0
 36 45  1  0  0  0  0
 36 46  1  0  0  0  0
 37 47  1  0  0  0  0
 47 48  2  0  0  0  0
 47 49  1  0  0  0  0
 49 50  1  0  0  0  0
 49 51  1  0  0  0  0
 49 52  1  0  0  0  0
M  END
$$$$
