40
 OpenBabel02232411163D
Structure written by MMmdl.
 49 52  0  0  0  0  0  0  0  0999 V2000
    4.0200  -50.9810    7.5830 O   0  0  0  0  0  0  0  0  0  0  0  0
    3.3730  -49.9400    7.3450 C   0  0  0  0  0  0  0  0  0  0  0  0
    3.8170  -48.7820    7.3830 O   0  5  0  0  0  0  0  0  0  0  0  0
    1.9010  -50.1420    6.9600 C   0  0  0  0  0  0  0  0  0  0  0  0
   -0.0710  -51.2800    6.8340 C   0  0  0  0  0  0  0  0  0  0  0  0
   -1.1120  -52.2180    6.9680 C   0  0  0  0  0  0  0  0  0  0  0  0
   -2.3510  -51.8750    6.4550 C   0  0  0  0  0  0  0  0  0  0  0  0
   -2.5480  -50.6380    5.7960 C   0  0  0  0  0  0  0  0  0  0  0  0
   -1.5180  -49.7200    5.6450 C   0  0  0  0  0  0  0  0  0  0  0  0
   -0.2510  -49.9980    6.1880 C   0  0  0  0  0  0  0  0  0  0  0  0
    1.0060  -49.2920    6.3060 C   0  0  0  0  0  0  0  0  0  0  0  0
    1.3780  -47.9300    5.8320 C   0  0  0  0  0  0  0  0  0  0  0  0
    0.2710  -46.8660    5.7660 C   0  0  0  0  0  0  0  0  0  0  0  0
   -0.3310  -46.4420    7.1050 C   0  0  0  0  0  0  0  0  0  0  0  0
   -1.2550  -47.5050    7.5170 O   0  0  0  0  0  0  0  0  0  0  0  0
   -2.4570  -47.2070    8.0750 C   0  0  0  0  0  0  0  0  0  0  0  0
   -3.1640  -46.0030    7.9490 C   0  0  0  0  0  0  0  0  0  0  0  0
   -4.3800  -45.9130    8.6360 C   0  0  0  0  0  0  0  0  0  0  0  0
   -4.8930  -46.9110    9.4540 C   0  0  0  0  0  0  0  0  0  0  0  0
   -4.1620  -48.1080    9.5450 C   0  0  0  0  0  0  0  0  0  0  0  0
   -2.9880  -48.2860    8.8330 C   0  0  0  0  0  0  0  0  0  0  0  0
   -0.9580  -53.1760    7.4640 H   0  0  0  0  0  0  0  0  0  0  0  0
   -3.1960  -52.5580    6.5530 H   0  0  0  0  0  0  0  0  0  0  0  0
   -3.5400  -50.4070    5.4050 H   0  0  0  0  0  0  0  0  0  0  0  0
   -1.7200  -48.7930    5.1090 H   0  0  0  0  0  0  0  0  0  0  0  0
    1.8020  -48.0220    4.7990 H   0  0  0  0  0  0  0  0  0  0  0  0
    2.1970  -47.5400    6.5030 H   0  0  0  0  0  0  0  0  0  0  0  0
   -0.5520  -47.2050    5.0930 H   0  0  0  0  0  0  0  0  0  0  0  0
    0.7270  -45.9490    5.3120 H   0  0  0  0  0  0  0  0  0  0  0  0
   -0.8570  -45.4700    7.0140 H   0  0  0  0  0  0  0  0  0  0  0  0
    0.4140  -46.4340    7.9320 H   0  0  0  0  0  0  0  0  0  0  0  0
   -2.8220  -45.1720    7.3450 H   0  0  0  0  0  0  0  0  0  0  0  0
   -2.4700  -49.2440    8.8420 H   0  0  0  0  0  0  0  0  0  0  0  0
    1.2540  -51.3490    7.2780 N   0  0  0  0  0  0  0  0  0  0  0  0
    1.6500  -52.1580    7.7460 H   0  0  0  0  0  0  0  0  0  0  0  0
   -4.5370  -48.8960   10.1990 H   0  0  0  0  0  0  0  0  0  0  0  0
   -5.8280  -46.7840    9.9920 H   0  0  0  0  0  0  0  0  0  0  0  0
   -5.1030  -44.6990    8.5900 O   0  0  0  0  0  0  0  0  0  0  0  0
   -7.5880  -44.2400    5.2830 C   0  0  0  0  0  0  0  0  0  0  0  0
   -8.1100  -44.6780    6.5060 C   0  0  0  0  0  0  0  0  0  0  0  0
   -7.2770  -44.8520    7.6110 C   0  0  0  0  0  0  0  0  0  0  0  0
   -5.9150  -44.5660    7.4580 C   0  0  0  0  0  0  0  0  0  0  0  0
   -5.3740  -44.0880    6.2600 C   0  0  0  0  0  0  0  0  0  0  0  0
   -6.2290  -43.9290    5.1680 C   0  0  0  0  0  0  0  0  0  0  0  0
   -8.2510  -44.1440    4.4290 H   0  0  0  0  0  0  0  0  0  0  0  0
   -9.1750  -44.8830    6.6010 H   0  0  0  0  0  0  0  0  0  0  0  0
   -7.6730  -45.2110    8.5600 H   0  0  0  0  0  0  0  0  0  0  0  0
   -4.3210  -43.8370    6.1660 H   0  0  0  0  0  0  0  0  0  0  0  0
   -5.8220  -43.5600    4.2280 H   0  0  0  0  0  0  0  0  0  0  0  0
  1  2  2  0  0  0  0
  2  3  1  0  0  0  0
  2  4  1  0  0  0  0
  4 11  2  0  0  0  0
  4 34  1  0  0  0  0
  5  6  2  0  0  0  0
  5 10  1  0  0  0  0
  5 34  1  0  0  0  0
  6  7  1  0  0  0  0
  6 22  1  0  0  0  0
  7  8  2  0  0  0  0
  7 23  1  0  0  0  0
  8  9  1  0  0  0  0
  8 24  1  0  0  0  0
  9 10  2  0  0  0  0
  9 25  1  0  0  0  0
 10 11  1  0  0  0  0
 11 12  1  0  0  0  0
 12 26  1  0  0  0  0
 12 27  1  0  0  0  0
 12 13  1  0  0  0  0
 13 14  1  0  0  0  0
 13 28  1  0  0  0  0
 13 29  1  0  0  0  0
 14 15  1  0  0  0  0
 14 30  1  0  0  0  0
 14 31  1  0  0  0  0
 15 16  1  0  0  0  0
 16 17  2  0  0  0  0
 16 21  1  0  0  0  0
 17 18  1  0  0  0  0
 17 32  1  0  0  0  0
 18 19  2  0  0  0  0
 18 38  1  0  0  0  0
 19 20  1  0  0  0  0
 19 37  1  0  0  0  0
 20 21  2  0  0  0  0
 20 36  1  0  0  0  0
 21 33  1  0  0  0  0
 34 35  1  0  0  0  0
 38 42  1  0  0  0  0
 39 40  2  0  0  0  0
 39 44  1  0  0  0  0
 39 45  1  0  0  0  0
 40 41  1  0  0  0  0
 40 46  1  0  0  0  0
 41 42  2  0  0  0  0
 41 47  1  0  0  0  0
 42 43  1  0  0  0  0
 43 44  2  0  0  0  0
 43 48  1  0  0  0  0
 44 49  1  0  0  0  0
M  CHG  1   3  -1
M  END
$$$$
