2bb
                    3D
 Schrodinger Suite 2022-3.
 44 46  0  0  1  0  0  0  0  0999 V2000
   16.1370   10.6010   31.7280 C   0  0  0  0  0  0  0  0  0  0  0  0
   21.6130   12.4550   31.3240 C   0  0  0  0  0  0  0  0  0  0  0  0
   17.4570   11.0330   31.8350 C   0  0  0  0  0  0  0  0  0  0  0  0
   24.2680    8.4200   31.1860 C   0  0  0  0  0  0  0  0  0  0  0  0
   26.7470    8.5270   31.5090 C   0  0  0  0  0  0  0  0  0  0  0  0
   21.8050    9.6180   30.8560 C   0  0  0  0  0  0  0  0  0  0  0  0
   20.5220   10.2640   30.7570 C   0  0  0  0  0  0  0  0  0  0  0  0
   15.4620   10.9230   30.5440 C   0  0  0  0  0  0  0  0  0  0  0  0
   16.0450   11.6520   29.5040 C   0  0  0  0  0  0  0  0  0  0  0  0
   17.3690   12.0840   29.6390 C   0  0  0  0  0  0  0  0  0  0  0  0
   22.9570   10.3690   31.2380 C   0  0  0  0  0  0  0  0  0  0  0  0
   22.0030    8.2370   30.5980 C   0  0  0  0  0  0  0  0  0  0  0  0
   20.4400   11.5890   31.0120 C   0  0  0  0  0  0  0  0  0  0  0  0
   18.0700   11.7840   30.8120 C   0  0  0  0  0  0  0  0  0  0  0  0
   24.0860   12.5110   31.8290 C   0  0  0  0  0  0  0  0  0  0  0  0
   18.1570   10.7400   32.9220 F   0  0  0  0  0  0  0  0  0  0  0  0
   14.2100   10.4940   30.4010 F   0  0  0  0  0  0  0  0  0  0  0  0
   19.3120   12.4000   31.0160 O   0  0  0  0  0  0  0  0  0  0  0  0
   23.1900    7.6270   30.7630 N   0  0  0  0  0  0  0  0  0  0  0  0
   21.5870   13.6570   31.4690 O   0  0  0  0  0  0  0  0  0  0  0  0
   22.8580   11.7480   31.4680 N   0  0  0  0  0  0  0  0  0  0  0  0
   24.1900    9.7770   31.3850 N   0  0  0  0  0  0  0  0  0  0  0  0
   25.4590    7.7560   31.4900 N   0  0  0  0  0  0  0  0  0  0  0  0
   15.4880   11.8770   28.5910 H   0  0  0  0  0  0  0  0  0  0  0  0
   17.8450   12.6520   28.8330 H   0  0  0  0  0  0  0  0  0  0  0  0
   15.6630   10.0140   32.5170 H   0  0  0  0  0  0  0  0  0  0  0  0
   19.6580    9.6540   30.4800 H   0  0  0  0  0  0  0  0  0  0  0  0
   21.1680    7.6140   30.2360 H   0  0  0  0  0  0  0  0  0  0  0  0
   26.6390    9.3800   32.2350 H   0  0  0  0  0  0  0  0  0  0  0  0
   24.6470   11.9720   32.6420 H   0  0  0  0  0  0  0  0  0  0  0  0
   24.7610   12.5930   30.9340 H   0  0  0  0  0  0  0  0  0  0  0  0
   23.8140   13.5370   32.1870 H   0  0  0  0  0  0  0  0  0  0  0  0
   25.5610    6.7950   31.1000 H   0  0  0  0  0  0  0  0  0  0  0  0
   26.9420    8.9580   30.4860 H   0  0  0  0  0  0  0  0  0  0  0  0
   27.9240    7.6180   31.8840 C   0  0  0  0  0  0  0  0  0  0  0  0
   27.8610    6.6630   31.2960 H   0  0  0  0  0  0  0  0  0  0  0  0
   28.8540    8.1420   31.5180 H   0  0  0  0  0  0  0  0  0  0  0  0
   28.1150    7.2560   33.6030 S   0  0  0  0  0  0  0  0  0  0  0  0
   28.3430    8.4970   34.3760 O   0  0  0  0  0  0  0  0  0  0  0  0
   29.2630    6.3340   33.7930 O   0  0  0  0  0  0  0  0  0  0  0  0
   26.6320    6.4920   34.0810 C   0  0  0  0  0  0  0  0  0  0  0  0
   26.6540    6.1410   35.1450 H   0  0  0  0  0  0  0  0  0  0  0  0
   25.7460    7.1710   33.9610 H   0  0  0  0  0  0  0  0  0  0  0  0
   26.4190    5.5840   33.4500 H   0  0  0  0  0  0  0  0  0  0  0  0
  1  3  1  0  0  0  0
  1  8  2  0  0  0  0
  1 26  1  0  0  0  0
  2 13  1  0  0  0  0
  2 20  2  0  0  0  0
  2 21  1  0  0  0  0
  3 14  2  0  0  0  0
  3 16  1  0  0  0  0
  4 19  1  0  0  0  0
  4 22  2  0  0  0  0
  4 23  1  0  0  0  0
  5 23  1  0  0  0  0
  5 29  1  0  0  0  0
  5 34  1  0  0  0  0
  5 35  1  0  0  0  0
  6  7  1  0  0  0  0
  6 11  2  0  0  0  0
  6 12  1  0  0  0  0
  7 13  2  0  0  0  0
  7 27  1  0  0  0  0
  8  9  1  0  0  0  0
  8 17  1  0  0  0  0
  9 10  2  0  0  0  0
  9 24  1  0  0  0  0
 10 14  1  0  0  0  0
 10 25  1  0  0  0  0
 11 21  1  0  0  0  0
 11 22  1  0  0  0  0
 12 19  2  0  0  0  0
 12 28  1  0  0  0  0
 13 18  1  0  0  0  0
 14 18  1  0  0  0  0
 15 21  1  0  0  0  0
 15 30  1  0  0  0  0
 15 31  1  0  0  0  0
 15 32  1  0  0  0  0
 23 33  1  0  0  0  0
 35 36  1  0  0  0  0
 35 37  1  0  0  0  0
 35 38  1  0  0  0  0
 38 39  2  0  0  0  0
 38 40  2  0  0  0  0
 38 41  1  0  0  0  0
 41 42  1  0  0  0  0
 41 43  1  0  0  0  0
 41 44  1  0  0  0  0
M  END
$$$$
