p38a_2u
 OpenBabel02232411163D
Structure written by MMmdl.
 64 68  0  0  0  0  0  0  0  0999 V2000
   38.2760   36.5380   17.1690 C   0  0  0  0  0  0  0  0  0  0  0  0
   34.5290   35.1170   21.2530 C   0  0  0  0  0  0  0  0  0  0  0  0
   37.4930   36.0900   18.2300 C   0  0  0  0  0  0  0  0  0  0  0  0
   33.9910   39.2180   23.7610 C   0  0  0  0  0  0  0  0  0  0  0  0
   34.6170   37.9940   21.3710 C   0  0  0  0  0  0  0  0  0  0  0  0
   35.0240   37.3300   20.1640 C   0  0  0  0  0  0  0  0  0  0  0  0
   37.6270   36.6900   15.9370 C   0  0  0  0  0  0  0  0  0  0  0  0
   36.2780   36.3910   15.7340 C   0  0  0  0  0  0  0  0  0  0  0  0
   35.5160   35.9290   16.8120 C   0  0  0  0  0  0  0  0  0  0  0  0
   34.2370   37.2290   22.5130 C   0  0  0  0  0  0  0  0  0  0  0  0
   34.5980   39.4090   21.5060 C   0  0  0  0  0  0  0  0  0  0  0  0
   35.0150   35.9780   20.1370 C   0  0  0  0  0  0  0  0  0  0  0  0
   36.1300   35.7710   18.0580 C   0  0  0  0  0  0  0  0  0  0  0  0
   38.0280   35.9610   19.4370 F   0  0  0  0  0  0  0  0  0  0  0  0
   35.4100   35.1500   19.0870 O   0  0  0  0  0  0  0  0  0  0  0  0
   34.3000   40.0340   22.6540 N   0  0  0  0  0  0  0  0  0  0  0  0
   34.4310   33.9100   21.1800 O   0  0  0  0  0  0  0  0  0  0  0  0
   34.1500   35.8210   22.4470 N   0  0  0  0  0  0  0  0  0  0  0  0
   33.9460   37.8380   23.7060 N   0  0  0  0  0  0  0  0  0  0  0  0
   33.6530   39.8360   24.9420 N   0  0  0  0  0  0  0  0  0  0  0  0
   39.3310   36.7950   17.3010 H   0  0  0  0  0  0  0  0  0  0  0  0
   35.3420   37.9410   19.3170 H   0  0  0  0  0  0  0  0  0  0  0  0
   35.8070   36.5280   14.7580 H   0  0  0  0  0  0  0  0  0  0  0  0
   34.4520   35.7110   16.6760 H   0  0  0  0  0  0  0  0  0  0  0  0
   34.8360   40.0420   20.6350 H   0  0  0  0  0  0  0  0  0  0  0  0
   33.7830   40.8610   25.0390 H   0  0  0  0  0  0  0  0  0  0  0  0
   38.3250   37.1830   14.9160 F   0  0  0  0  0  0  0  0  0  0  0  0
   32.4020   39.1030   28.4760 C   0  0  0  0  0  0  0  0  0  0  0  0
   32.4730   39.7870   27.1050 C   0  0  0  0  0  0  0  0  0  0  0  0
   33.5270   39.0800   26.2270 C   0  0  0  0  0  0  0  0  0  0  0  0
   34.8870   39.0260   26.9580 C   0  0  0  0  0  0  0  0  0  0  0  0
   34.7070   38.3860   28.3410 C   0  0  0  0  0  0  0  0  0  0  0  0
   33.6960   39.0640   29.1200 O   0  0  0  0  0  0  0  0  0  0  0  0
   32.0140   38.0620   28.3820 H   0  0  0  0  0  0  0  0  0  0  0  0
   31.8010   39.7050   29.1960 H   0  0  0  0  0  0  0  0  0  0  0  0
   32.7470   40.8610   27.2370 H   0  0  0  0  0  0  0  0  0  0  0  0
   31.4760   39.7380   26.6060 H   0  0  0  0  0  0  0  0  0  0  0  0
   33.1810   38.0320   26.0030 H   0  0  0  0  0  0  0  0  0  0  0  0
   35.6090   38.4140   26.3660 H   0  0  0  0  0  0  0  0  0  0  0  0
   35.3020   40.0560   27.0650 H   0  0  0  0  0  0  0  0  0  0  0  0
   34.4350   37.3080   28.2420 H   0  0  0  0  0  0  0  0  0  0  0  0
   35.6190   38.5190   28.9670 H   0  0  0  0  0  0  0  0  0  0  0  0
   34.4160   33.6980   25.6610 C   0  0  0  0  0  0  0  0  0  0  0  0
   34.8590   34.2650   24.2920 C   0  0  0  0  0  0  0  0  0  0  0  0
   33.6930   35.0610   23.6770 C   0  0  0  0  0  0  0  0  0  0  0  0
   32.4850   34.1520   23.3680 C   0  0  0  0  0  0  0  0  0  0  0  0
   32.4150   32.9660   24.3580 C   0  0  0  0  0  0  0  0  0  0  0  0
   34.5950   34.4740   26.4550 H   0  0  0  0  0  0  0  0  0  0  0  0
   35.0530   32.7970   25.8750 H   0  0  0  0  0  0  0  0  0  0  0  0
   35.1610   33.4250   23.6250 H   0  0  0  0  0  0  0  0  0  0  0  0
   35.7410   34.9260   24.4600 H   0  0  0  0  0  0  0  0  0  0  0  0
   33.3610   35.8200   24.4500 H   0  0  0  0  0  0  0  0  0  0  0  0
   31.5550   34.7650   23.4480 H   0  0  0  0  0  0  0  0  0  0  0  0
   32.5390   33.7270   22.3380 H   0  0  0  0  0  0  0  0  0  0  0  0
   31.3430   32.6560   24.4690 H   0  0  0  0  0  0  0  0  0  0  0  0
   33.0110   32.1040   23.9530 H   0  0  0  0  0  0  0  0  0  0  0  0
   32.9600   33.3610   25.6890 N   0  0  0  0  0  0  0  0  0  0  0  0
   32.3130   32.6670   27.1170 S   0  0  0  0  0  0  0  0  0  0  0  0
   31.0260   32.0320   26.7540 O   0  0  0  0  0  0  0  0  0  0  0  0
   32.1450   33.7140   28.1350 O   0  0  0  0  0  0  0  0  0  0  0  0
   33.4540   31.4850   27.6810 C   0  0  0  0  0  0  0  0  0  0  0  0
   33.7790   30.7790   26.8740 H   0  0  0  0  0  0  0  0  0  0  0  0
   34.3770   31.9520   28.1130 H   0  0  0  0  0  0  0  0  0  0  0  0
   33.0200   30.8460   28.4970 H   0  0  0  0  0  0  0  0  0  0  0  0
  1  3  2  0  0  0  0
  1  7  1  0  0  0  0
  1 21  1  0  0  0  0
  2 12  1  0  0  0  0
  2 17  2  0  0  0  0
  2 18  1  0  0  0  0
  3 13  1  0  0  0  0
  3 14  1  0  0  0  0
  4 16  2  0  0  0  0
  4 19  1  0  0  0  0
  4 20  1  0  0  0  0
  5  6  1  0  0  0  0
  5 10  1  0  0  0  0
  5 11  2  0  0  0  0
  6 12  2  0  0  0  0
  6 22  1  0  0  0  0
  7  8  2  0  0  0  0
  7 27  1  0  0  0  0
  8  9  1  0  0  0  0
  8 23  1  0  0  0  0
  9 13  2  0  0  0  0
  9 24  1  0  0  0  0
 10 18  1  0  0  0  0
 10 19  2  0  0  0  0
 11 16  1  0  0  0  0
 11 25  1  0  0  0  0
 12 15  1  0  0  0  0
 13 15  1  0  0  0  0
 18 45  1  0  0  0  0
 20 26  1  0  0  0  0
 20 30  1  0  0  0  0
 28 29  1  0  0  0  0
 28 33  1  0  0  0  0
 28 34  1  0  0  0  0
 28 35  1  0  0  0  0
 29 30  1  0  0  0  0
 29 36  1  0  0  0  0
 29 37  1  0  0  0  0
 30 31  1  0  0  0  0
 30 38  1  0  0  0  0
 31 32  1  0  0  0  0
 31 39  1  0  0  0  0
 31 40  1  0  0  0  0
 32 33  1  0  0  0  0
 32 41  1  0  0  0  0
 32 42  1  0  0  0  0
 43 44  1  0  0  0  0
 43 48  1  0  0  0  0
 43 49  1  0  0  0  0
 43 57  1  0  0  0  0
 44 45  1  0  0  0  0
 44 50  1  0  0  0  0
 44 51  1  0  0  0  0
 45 46  1  0  0  0  0
 45 52  1  0  0  0  0
 46 47  1  0  0  0  0
 46 53  1  0  0  0  0
 46 54  1  0  0  0  0
 47 55  1  0  0  0  0
 47 56  1  0  0  0  0
 47 57  1  0  0  0  0
 57 58  1  0  0  0  0
 58 59  2  0  0  0  0
 58 60  2  0  0  0  0
 58 61  1  0  0  0  0
 61 62  1  0  0  0  0
 61 63  1  0  0  0  0
 61 64  1  0  0  0  0
M  END
$$$$
