p38a_2aa
 OpenBabel02232411163D
Structure written by MMmdl.
 43 45  0  0  0  0  0  0  0  0999 V2000
   38.3240   36.6150   17.0480 C   0  0  0  0  0  0  0  0  0  0  0  0
   34.6550   34.9770   21.0390 C   0  0  0  0  0  0  0  0  0  0  0  0
   37.5200   36.1330   18.0780 C   0  0  0  0  0  0  0  0  0  0  0  0
   33.9900   38.8930   23.7990 C   0  0  0  0  0  0  0  0  0  0  0  0
   33.4060   38.5330   26.2000 C   0  0  0  0  0  0  0  0  0  0  0  0
   34.6940   37.8480   21.3430 C   0  0  0  0  0  0  0  0  0  0  0  0
   35.0690   37.2650   20.0830 C   0  0  0  0  0  0  0  0  0  0  0  0
   37.7000   36.8020   15.8080 C   0  0  0  0  0  0  0  0  0  0  0  0
   36.3550   36.5110   15.5680 C   0  0  0  0  0  0  0  0  0  0  0  0
   35.5730   36.0110   16.6130 C   0  0  0  0  0  0  0  0  0  0  0  0
   34.3990   37.0010   22.4530 C   0  0  0  0  0  0  0  0  0  0  0  0
   34.6050   39.2490   21.5640 C   0  0  0  0  0  0  0  0  0  0  0  0
   35.0720   35.9170   19.9650 C   0  0  0  0  0  0  0  0  0  0  0  0
   36.1620   35.8150   17.8650 C   0  0  0  0  0  0  0  0  0  0  0  0
   34.1390   34.7500   23.4990 C   0  0  0  0  0  0  0  0  0  0  0  0
   38.0280   35.9720   19.2940 F   0  0  0  0  0  0  0  0  0  0  0  0
   35.4150   35.1570   18.8490 O   0  0  0  0  0  0  0  0  0  0  0  0
   34.2620   39.7880   22.7460 N   0  0  0  0  0  0  0  0  0  0  0  0
   34.5200   33.7790   20.9140 O   0  0  0  0  0  0  0  0  0  0  0  0
   34.4140   35.6040   22.3100 N   0  0  0  0  0  0  0  0  0  0  0  0
   34.0730   37.5170   23.6800 N   0  0  0  0  0  0  0  0  0  0  0  0
   33.5580   39.4070   25.0000 N   0  0  0  0  0  0  0  0  0  0  0  0
   39.3740   36.8700   17.2120 H   0  0  0  0  0  0  0  0  0  0  0  0
   33.1610   39.4080   27.4550 C   0  0  0  0  0  0  0  0  0  0  0  0
   35.3460   37.9330   19.2650 H   0  0  0  0  0  0  0  0  0  0  0  0
   35.9030   36.6850   14.5900 H   0  0  0  0  0  0  0  0  0  0  0  0
   34.5130   35.7920   16.4480 H   0  0  0  0  0  0  0  0  0  0  0  0
   34.8180   39.9490   20.7380 H   0  0  0  0  0  0  0  0  0  0  0  0
   34.7850   35.0730   24.3610 H   0  0  0  0  0  0  0  0  0  0  0  0
   33.0640   34.8520   23.8060 H   0  0  0  0  0  0  0  0  0  0  0  0
   34.3570   33.6760   23.2640 H   0  0  0  0  0  0  0  0  0  0  0  0
   33.5400   40.4330   25.1570 H   0  0  0  0  0  0  0  0  0  0  0  0
   38.4140   37.3240   14.8150 F   0  0  0  0  0  0  0  0  0  0  0  0
   32.3030   37.4560   25.9710 C   0  0  0  0  0  0  0  0  0  0  0  0
   31.1710   37.6070   26.8510 O   0  0  0  0  0  0  0  0  0  0  0  0
   31.3680   37.1750   27.7220 H   0  0  0  0  0  0  0  0  0  0  0  0
   31.8240   37.5600   24.9680 H   0  0  0  0  0  0  0  0  0  0  0  0
   32.7370   36.4370   26.1080 H   0  0  0  0  0  0  0  0  0  0  0  0
   31.8820   40.0340   27.4740 O   0  0  0  0  0  0  0  0  0  0  0  0
   33.2710   38.7650   28.3650 H   0  0  0  0  0  0  0  0  0  0  0  0
   33.8780   40.2640   27.4980 H   0  0  0  0  0  0  0  0  0  0  0  0
   31.1940   39.3510   27.2230 H   0  0  0  0  0  0  0  0  0  0  0  0
   34.3850   37.9860   26.3680 H   0  0  0  0  0  0  0  0  0  0  0  0
  1  3  2  0  0  0  0
  1  8  1  0  0  0  0
  1 23  1  0  0  0  0
  2 13  1  0  0  0  0
  2 19  2  0  0  0  0
  2 20  1  0  0  0  0
  3 14  1  0  0  0  0
  3 16  1  0  0  0  0
  4 18  2  0  0  0  0
  4 21  1  0  0  0  0
  4 22  1  0  0  0  0
  5 22  1  0  0  0  0
  5 24  1  0  0  0  0
  5 34  1  0  0  0  0
  5 43  1  0  0  0  0
  6  7  1  0  0  0  0
  6 11  1  0  0  0  0
  6 12  2  0  0  0  0
  7 13  2  0  0  0  0
  7 25  1  0  0  0  0
  8  9  2  0  0  0  0
  8 33  1  0  0  0  0
  9 10  1  0  0  0  0
  9 26  1  0  0  0  0
 10 14  2  0  0  0  0
 10 27  1  0  0  0  0
 11 20  1  0  0  0  0
 11 21  2  0  0  0  0
 12 18  1  0  0  0  0
 12 28  1  0  0  0  0
 13 17  1  0  0  0  0
 14 17  1  0  0  0  0
 15 20  1  0  0  0  0
 15 29  1  0  0  0  0
 15 30  1  0  0  0  0
 15 31  1  0  0  0  0
 22 32  1  0  0  0  0
 24 39  1  0  0  0  0
 24 40  1  0  0  0  0
 24 41  1  0  0  0  0
 34 35  1  0  0  0  0
 34 37  1  0  0  0  0
 34 38  1  0  0  0  0
 35 36  1  0  0  0  0
 39 42  1  0  0  0  0
M  END
$$$$
