54
 OpenBabel02232411163D
Structure written by MMmdl.
 44 47  0  0  0  0  0  0  0  0999 V2000
    3.8730  -49.7460    6.2700 O   0  0  0  0  0  0  0  0  0  0  0  0
    3.0630  -48.8690    6.6310 C   0  0  0  0  0  0  0  0  0  0  0  0
    3.3260  -47.7810    7.1580 O   0  5  0  0  0  0  0  0  0  0  0  0
    1.5790  -49.2130    6.4040 C   0  0  0  0  0  0  0  0  0  0  0  0
   -0.2560  -50.5750    6.4470 C   0  0  0  0  0  0  0  0  0  0  0  0
   -1.1740  -51.6270    6.6180 C   0  0  0  0  0  0  0  0  0  0  0  0
   -2.4750  -51.3450    6.2470 C   0  0  0  0  0  0  0  0  0  0  0  0
   -2.9110  -50.1110    5.7280 C   0  0  0  0  0  0  0  0  0  0  0  0
   -1.9990  -49.0770    5.5670 C   0  0  0  0  0  0  0  0  0  0  0  0
   -0.6590  -49.2890    5.9270 C   0  0  0  0  0  0  0  0  0  0  0  0
    0.5210  -48.4540    5.9210 C   0  0  0  0  0  0  0  0  0  0  0  0
    0.4940  -47.0340    5.4850 C   0  0  0  0  0  0  0  0  0  0  0  0
    0.4000  -46.0590    6.6700 C   0  0  0  0  0  0  0  0  0  0  0  0
   -0.7810  -46.2970    7.6030 C   0  0  0  0  0  0  0  0  0  0  0  0
   -1.9790  -45.7990    6.8940 O   0  0  0  0  0  0  0  0  0  0  0  0
   -3.1640  -45.8510    7.5700 C   0  0  0  0  0  0  0  0  0  0  0  0
   -5.6840  -45.6930    8.8120 C   0  0  0  0  0  0  0  0  0  0  0  0
   -4.6780  -46.4500    9.3590 C   0  0  0  0  0  0  0  0  0  0  0  0
   -3.3990  -46.5340    8.7490 C   0  0  0  0  0  0  0  0  0  0  0  0
   -0.8770  -52.5980    7.0150 H   0  0  0  0  0  0  0  0  0  0  0  0
   -3.6670  -52.6060    6.3920 Cl  0  0  0  0  0  0  0  0  0  0  0  0
   -3.9590  -49.9740    5.4560 H   0  0  0  0  0  0  0  0  0  0  0  0
   -2.3300  -48.1150    5.1700 H   0  0  0  0  0  0  0  0  0  0  0  0
   -0.4020  -46.8850    4.8320 H   0  0  0  0  0  0  0  0  0  0  0  0
    1.4110  -46.7820    4.8980 H   0  0  0  0  0  0  0  0  0  0  0  0
    0.3400  -45.0170    6.2810 H   0  0  0  0  0  0  0  0  0  0  0  0
    1.3280  -46.1760    7.2880 H   0  0  0  0  0  0  0  0  0  0  0  0
   -0.6980  -45.6790    8.5230 H   0  0  0  0  0  0  0  0  0  0  0  0
   -0.9530  -47.3760    7.8010 H   0  0  0  0  0  0  0  0  0  0  0  0
   -2.6530  -47.1520    9.2340 H   0  0  0  0  0  0  0  0  0  0  0  0
   -5.4790  -45.0180    7.5690 C   0  0  0  0  0  0  0  0  0  0  0  0
   -4.2170  -45.1010    6.9220 C   0  0  0  0  0  0  0  0  0  0  0  0
   -4.0360  -44.4810    5.6530 C   0  0  0  0  0  0  0  0  0  0  0  0
   -5.0640  -43.7860    5.0610 C   0  0  0  0  0  0  0  0  0  0  0  0
   -6.3260  -43.6950    5.7080 C   0  0  0  0  0  0  0  0  0  0  0  0
   -6.5310  -44.2930    6.9280 C   0  0  0  0  0  0  0  0  0  0  0  0
   -3.0770  -44.5910    5.1460 H   0  0  0  0  0  0  0  0  0  0  0  0
   -4.9280  -43.3040    4.0950 H   0  0  0  0  0  0  0  0  0  0  0  0
   -7.1280  -43.1500    5.2160 H   0  0  0  0  0  0  0  0  0  0  0  0
   -7.5030  -44.2350    7.4180 H   0  0  0  0  0  0  0  0  0  0  0  0
   -4.8510  -47.0070   10.2830 H   0  0  0  0  0  0  0  0  0  0  0  0
   -6.6550  -45.6150    9.3000 H   0  0  0  0  0  0  0  0  0  0  0  0
    1.1120  -50.5050    6.7240 N   0  0  0  0  0  0  0  0  0  0  0  0
    1.6520  -51.2820    7.0880 H   0  0  0  0  0  0  0  0  0  0  0  0
  1  2  2  0  0  0  0
  2  3  1  0  0  0  0
  2  4  1  0  0  0  0
  4 11  2  0  0  0  0
  4 43  1  0  0  0  0
  5  6  2  0  0  0  0
  5 10  1  0  0  0  0
  5 43  1  0  0  0  0
  6  7  1  0  0  0  0
  6 20  1  0  0  0  0
  7  8  2  0  0  0  0
  7 21  1  0  0  0  0
  8  9  1  0  0  0  0
  8 22  1  0  0  0  0
  9 10  2  0  0  0  0
  9 23  1  0  0  0  0
 10 11  1  0  0  0  0
 11 12  1  0  0  0  0
 12 24  1  0  0  0  0
 12 25  1  0  0  0  0
 12 13  1  0  0  0  0
 13 14  1  0  0  0  0
 13 26  1  0  0  0  0
 13 27  1  0  0  0  0
 14 15  1  0  0  0  0
 14 28  1  0  0  0  0
 14 29  1  0  0  0  0
 15 16  1  0  0  0  0
 16 19  2  0  0  0  0
 16 32  1  0  0  0  0
 17 18  2  0  0  0  0
 17 31  1  0  0  0  0
 17 42  1  0  0  0  0
 18 19  1  0  0  0  0
 18 41  1  0  0  0  0
 19 30  1  0  0  0  0
 31 32  2  0  0  0  0
 31 36  1  0  0  0  0
 32 33  1  0  0  0  0
 33 34  2  0  0  0  0
 33 37  1  0  0  0  0
 34 35  1  0  0  0  0
 34 38  1  0  0  0  0
 35 36  2  0  0  0  0
 35 39  1  0  0  0  0
 36 40  1  0  0  0  0
 43 44  1  0  0  0  0
M  CHG  1   3  -1
M  END
$$$$
