p38a_2p
 OpenBabel02232411163D
Structure written by MMmdl.
 58 61  0  0  0  0  0  0  0  0999 V2000
   36.3160   35.9300   15.9850 C   0  0  0  0  0  0  0  0  0  0  0  0
   34.4960   35.0800   21.5630 C   0  0  0  0  0  0  0  0  0  0  0  0
   35.6390   35.5010   17.1240 C   0  0  0  0  0  0  0  0  0  0  0  0
   33.9690   39.2760   23.9150 C   0  0  0  0  0  0  0  0  0  0  0  0
   34.7000   37.9450   21.6110 C   0  0  0  0  0  0  0  0  0  0  0  0
   35.1520   37.2290   20.4500 C   0  0  0  0  0  0  0  0  0  0  0  0
   37.6130   36.4200   16.1780 C   0  0  0  0  0  0  0  0  0  0  0  0
   38.2460   36.4550   17.4250 C   0  0  0  0  0  0  0  0  0  0  0  0
   37.5350   36.0450   18.5570 C   0  0  0  0  0  0  0  0  0  0  0  0
   34.2160   37.2440   22.7540 C   0  0  0  0  0  0  0  0  0  0  0  0
   34.7200   39.3650   21.6900 C   0  0  0  0  0  0  0  0  0  0  0  0
   35.0850   35.8780   20.4540 C   0  0  0  0  0  0  0  0  0  0  0  0
   36.2290   35.5680   18.4020 C   0  0  0  0  0  0  0  0  0  0  0  0
   34.4160   34.9960   17.0270 F   0  0  0  0  0  0  0  0  0  0  0  0
   35.4860   35.0020   19.4460 O   0  0  0  0  0  0  0  0  0  0  0  0
   34.3730   40.0380   22.7920 N   0  0  0  0  0  0  0  0  0  0  0  0
   34.3430   33.8770   21.5490 O   0  0  0  0  0  0  0  0  0  0  0  0
   34.1080   35.8400   22.7230 N   0  0  0  0  0  0  0  0  0  0  0  0
   33.8590   37.9000   23.9070 N   0  0  0  0  0  0  0  0  0  0  0  0
   33.6830   40.0010   25.0420 N   0  0  0  0  0  0  0  0  0  0  0  0
   35.8520   35.9100   14.9950 H   0  0  0  0  0  0  0  0  0  0  0  0
   35.5470   37.8050   19.6100 H   0  0  0  0  0  0  0  0  0  0  0  0
   39.2710   36.8260   17.5190 H   0  0  0  0  0  0  0  0  0  0  0  0
   37.9930   36.1190   19.5460 H   0  0  0  0  0  0  0  0  0  0  0  0
   35.0260   39.9550   20.8100 H   0  0  0  0  0  0  0  0  0  0  0  0
   33.7840   41.0350   25.0080 H   0  0  0  0  0  0  0  0  0  0  0  0
   38.2620   36.9080   15.1230 F   0  0  0  0  0  0  0  0  0  0  0  0
   33.7370   38.2050   28.4420 C   0  0  0  0  0  0  0  0  0  0  0  0
   34.2660   38.6180   27.0630 C   0  0  0  0  0  0  0  0  0  0  0  0
   33.2110   39.4970   26.3650 C   0  0  0  0  0  0  0  0  0  0  0  0
   31.8670   38.7500   26.2780 C   0  0  0  0  0  0  0  0  0  0  0  0
   31.4410   38.3090   27.6860 C   0  0  0  0  0  0  0  0  0  0  0  0
   32.4630   37.5290   28.3470 O   0  0  0  0  0  0  0  0  0  0  0  0
   33.6270   39.0930   29.1080 H   0  0  0  0  0  0  0  0  0  0  0  0
   34.3850   37.4250   28.9050 H   0  0  0  0  0  0  0  0  0  0  0  0
   34.4720   37.7090   26.4480 H   0  0  0  0  0  0  0  0  0  0  0  0
   35.2190   39.1880   27.1810 H   0  0  0  0  0  0  0  0  0  0  0  0
   33.0610   40.4400   26.9750 H   0  0  0  0  0  0  0  0  0  0  0  0
   31.0850   39.4150   25.8400 H   0  0  0  0  0  0  0  0  0  0  0  0
   31.9700   37.8550   25.6170 H   0  0  0  0  0  0  0  0  0  0  0  0
   31.1980   39.1900   28.3210 H   0  0  0  0  0  0  0  0  0  0  0  0
   30.5880   37.5930   27.6370 H   0  0  0  0  0  0  0  0  0  0  0  0
   33.4800   35.1120   23.8780 C   0  0  0  0  0  0  0  0  0  0  0  0
   33.9470   34.0930   23.9340 H   0  0  0  0  0  0  0  0  0  0  0  0
   33.7010   35.6760   24.8260 H   0  0  0  0  0  0  0  0  0  0  0  0
   31.9560   35.0020   23.6790 C   0  0  0  0  0  0  0  0  0  0  0  0
   31.5710   35.9950   23.3200 H   0  0  0  0  0  0  0  0  0  0  0  0
   31.7270   34.2520   22.8810 H   0  0  0  0  0  0  0  0  0  0  0  0
   31.1760   34.6700   24.9540 C   0  0  0  0  0  0  0  0  0  0  0  0
   30.0820   34.7690   24.6860 H   0  0  0  0  0  0  0  0  0  0  0  0
   31.3670   35.4810   25.7080 H   0  0  0  0  0  0  0  0  0  0  0  0
   31.4570   33.0970   25.6850 S   0  0  0  0  0  0  0  0  0  0  0  0
   30.3570   32.7830   26.6340 O   0  0  0  0  0  0  0  0  0  0  0  0
   32.7590   33.0700   26.3860 O   0  0  0  0  0  0  0  0  0  0  0  0
   31.4400   31.9380   24.3900 C   0  0  0  0  0  0  0  0  0  0  0  0
   32.4290   31.8460   23.8730 H   0  0  0  0  0  0  0  0  0  0  0  0
   31.1840   30.9060   24.7490 H   0  0  0  0  0  0  0  0  0  0  0  0
   30.6790   32.1910   23.6070 H   0  0  0  0  0  0  0  0  0  0  0  0
  1  3  2  0  0  0  0
  1  7  1  0  0  0  0
  1 21  1  0  0  0  0
  2 12  1  0  0  0  0
  2 17  2  0  0  0  0
  2 18  1  0  0  0  0
  3 13  1  0  0  0  0
  3 14  1  0  0  0  0
  4 16  2  0  0  0  0
  4 19  1  0  0  0  0
  4 20  1  0  0  0  0
  5  6  1  0  0  0  0
  5 10  1  0  0  0  0
  5 11  2  0  0  0  0
  6 12  2  0  0  0  0
  6 22  1  0  0  0  0
  7  8  2  0  0  0  0
  7 27  1  0  0  0  0
  8  9  1  0  0  0  0
  8 23  1  0  0  0  0
  9 13  2  0  0  0  0
  9 24  1  0  0  0  0
 10 18  1  0  0  0  0
 10 19  2  0  0  0  0
 11 16  1  0  0  0  0
 11 25  1  0  0  0  0
 12 15  1  0  0  0  0
 13 15  1  0  0  0  0
 18 43  1  0  0  0  0
 20 26  1  0  0  0  0
 20 30  1  0  0  0  0
 28 29  1  0  0  0  0
 28 33  1  0  0  0  0
 28 34  1  0  0  0  0
 28 35  1  0  0  0  0
 29 30  1  0  0  0  0
 29 36  1  0  0  0  0
 29 37  1  0  0  0  0
 30 31  1  0  0  0  0
 30 38  1  0  0  0  0
 31 32  1  0  0  0  0
 31 39  1  0  0  0  0
 31 40  1  0  0  0  0
 32 33  1  0  0  0  0
 32 41  1  0  0  0  0
 32 42  1  0  0  0  0
 43 44  1  0  0  0  0
 43 45  1  0  0  0  0
 43 46  1  0  0  0  0
 46 47  1  0  0  0  0
 46 48  1  0  0  0  0
 46 49  1  0  0  0  0
 49 50  1  0  0  0  0
 49 51  1  0  0  0  0
 49 52  1  0  0  0  0
 52 53  2  0  0  0  0
 52 54  2  0  0  0  0
 52 55  1  0  0  0  0
 55 56  1  0  0  0  0
 55 57  1  0  0  0  0
 55 58  1  0  0  0  0
M  END
$$$$
