46
 OpenBabel02232411163D
Structure written by MMmdl.
 45 48  0  0  0  0  0  0  0  0999 V2000
    3.5560  -48.4360    7.1410 O   0  0  0  0  0  0  0  0  0  0  0  0
    3.1530  -49.3940    6.4690 C   0  0  0  0  0  0  0  0  0  0  0  0
    3.8530  -50.2320    5.8660 O   0  5  0  0  0  0  0  0  0  0  0  0
    1.6330  -49.6220    6.3630 C   0  0  0  0  0  0  0  0  0  0  0  0
   -0.2950  -50.8460    6.5290 C   0  0  0  0  0  0  0  0  0  0  0  0
   -1.2730  -51.8250    6.7740 C   0  0  0  0  0  0  0  0  0  0  0  0
   -2.5840  -51.5120    6.4470 C   0  0  0  0  0  0  0  0  0  0  0  0
   -2.9220  -50.2580    5.8850 C   0  0  0  0  0  0  0  0  0  0  0  0
   -1.9600  -49.2870    5.6430 C   0  0  0  0  0  0  0  0  0  0  0  0
   -0.6210  -49.5580    5.9670 C   0  0  0  0  0  0  0  0  0  0  0  0
    0.6130  -48.8050    5.8880 C   0  0  0  0  0  0  0  0  0  0  0  0
    0.6970  -47.4020    5.4030 C   0  0  0  0  0  0  0  0  0  0  0  0
    0.6550  -46.3750    6.5490 C   0  0  0  0  0  0  0  0  0  0  0  0
   -0.6550  -46.3980    7.3310 C   0  0  0  0  0  0  0  0  0  0  0  0
   -1.6490  -45.8410    6.3950 O   0  0  0  0  0  0  0  0  0  0  0  0
   -2.9060  -45.6110    6.8770 C   0  0  0  0  0  0  0  0  0  0  0  0
   -5.0060  -44.4720    6.4440 C   0  0  0  0  0  0  0  0  0  0  0  0
   -3.7120  -44.8150    6.0370 C   0  0  0  0  0  0  0  0  0  0  0  0
   -1.0200  -52.7910    7.2080 H   0  0  0  0  0  0  0  0  0  0  0  0
   -3.3780  -52.2380    6.6270 H   0  0  0  0  0  0  0  0  0  0  0  0
   -3.9680  -50.0620    5.6450 H   0  0  0  0  0  0  0  0  0  0  0  0
   -2.2500  -48.3260    5.2150 H   0  0  0  0  0  0  0  0  0  0  0  0
   -0.1760  -47.1970    4.7310 H   0  0  0  0  0  0  0  0  0  0  0  0
    1.6370  -47.2380    4.8240 H   0  0  0  0  0  0  0  0  0  0  0  0
    0.7840  -45.3530    6.1240 H   0  0  0  0  0  0  0  0  0  0  0  0
    1.4810  -46.5890    7.2690 H   0  0  0  0  0  0  0  0  0  0  0  0
   -0.6240  -45.7200    8.2110 H   0  0  0  0  0  0  0  0  0  0  0  0
   -0.9890  -47.4260    7.5830 H   0  0  0  0  0  0  0  0  0  0  0  0
   -3.3330  -44.4670    5.0820 H   0  0  0  0  0  0  0  0  0  0  0  0
   -3.3830  -46.1170    8.1050 C   0  0  0  0  0  0  0  0  0  0  0  0
   -5.6350  -43.8510    5.8060 H   0  0  0  0  0  0  0  0  0  0  0  0
   -2.7940  -46.7620    8.7470 H   0  0  0  0  0  0  0  0  0  0  0  0
    1.0900  -50.8600    6.7610 N   0  0  0  0  0  0  0  0  0  0  0  0
   -6.6330  -45.2350    9.7690 C   0  0  0  0  0  0  0  0  0  0  0  0
   -5.3980  -46.1720    9.7310 C   0  0  0  0  0  0  0  0  0  0  0  0
   -4.6730  -45.7720    8.4750 C   0  0  0  0  0  0  0  0  0  0  0  0
   -5.4800  -44.9380    7.6650 C   0  0  0  0  0  0  0  0  0  0  0  0
   -6.8050  -44.6780    8.3270 C   0  0  0  0  0  0  0  0  0  0  0  0
   -7.0480  -43.5970    8.3340 H   0  0  0  0  0  0  0  0  0  0  0  0
   -7.6180  -45.2260    7.7950 H   0  0  0  0  0  0  0  0  0  0  0  0
   -6.4490  -44.4010   10.4780 H   0  0  0  0  0  0  0  0  0  0  0  0
   -7.5360  -45.7850   10.0930 H   0  0  0  0  0  0  0  0  0  0  0  0
   -5.7210  -47.2380    9.6660 H   0  0  0  0  0  0  0  0  0  0  0  0
   -4.7660  -46.0470   10.6300 H   0  0  0  0  0  0  0  0  0  0  0  0
    1.5840  -51.6590    7.1400 H   0  0  0  0  0  0  0  0  0  0  0  0
  1  2  2  0  0  0  0
  2  3  1  0  0  0  0
  2  4  1  0  0  0  0
  4 11  2  0  0  0  0
  4 33  1  0  0  0  0
  5  6  2  0  0  0  0
  5 10  1  0  0  0  0
  5 33  1  0  0  0  0
  6  7  1  0  0  0  0
  6 19  1  0  0  0  0
  7  8  2  0  0  0  0
  7 20  1  0  0  0  0
  8  9  1  0  0  0  0
  8 21  1  0  0  0  0
  9 10  2  0  0  0  0
  9 22  1  0  0  0  0
 10 11  1  0  0  0  0
 11 12  1  0  0  0  0
 12 23  1  0  0  0  0
 12 24  1  0  0  0  0
 12 13  1  0  0  0  0
 13 14  1  0  0  0  0
 13 25  1  0  0  0  0
 13 26  1  0  0  0  0
 14 15  1  0  0  0  0
 14 27  1  0  0  0  0
 14 28  1  0  0  0  0
 15 16  1  0  0  0  0
 16 18  2  0  0  0  0
 16 30  1  0  0  0  0
 17 18  1  0  0  0  0
 17 31  1  0  0  0  0
 17 37  2  0  0  0  0
 18 29  1  0  0  0  0
 30 32  1  0  0  0  0
 30 36  2  0  0  0  0
 33 45  1  0  0  0  0
 34 35  1  0  0  0  0
 34 38  1  0  0  0  0
 34 41  1  0  0  0  0
 34 42  1  0  0  0  0
 35 36  1  0  0  0  0
 35 43  1  0  0  0  0
 35 44  1  0  0  0  0
 36 37  1  0  0  0  0
 37 38  1  0  0  0  0
 38 39  1  0  0  0  0
 38 40  1  0  0  0  0
M  CHG  1   3  -1
M  END
$$$$
