37
 OpenBabel02232411163D
Structure written by MMmdl.
 44 46  0  0  0  0  0  0  0  0999 V2000
    3.7830  -50.0590    5.6010 O   0  0  0  0  0  0  0  0  0  0  0  0
    3.0680  -49.3210    6.3080 C   0  0  0  0  0  0  0  0  0  0  0  0
    3.4530  -48.4040    7.0450 O   0  5  0  0  0  0  0  0  0  0  0  0
    1.5610  -49.6420    6.2590 C   0  0  0  0  0  0  0  0  0  0  0  0
   -0.2520  -51.0420    6.3330 C   0  0  0  0  0  0  0  0  0  0  0  0
   -1.1370  -52.1250    6.4780 C   0  0  0  0  0  0  0  0  0  0  0  0
   -2.4930  -51.8640    6.3450 C   0  0  0  0  0  0  0  0  0  0  0  0
   -2.9670  -50.5620    6.0590 C   0  0  0  0  0  0  0  0  0  0  0  0
   -2.0990  -49.4880    5.9150 C   0  0  0  0  0  0  0  0  0  0  0  0
   -0.7190  -49.7070    6.0600 C   0  0  0  0  0  0  0  0  0  0  0  0
    0.4450  -48.8460    6.0330 C   0  0  0  0  0  0  0  0  0  0  0  0
    0.3470  -47.3700    5.8830 C   0  0  0  0  0  0  0  0  0  0  0  0
   -0.1030  -46.7600    7.2280 C   0  0  0  0  0  0  0  0  0  0  0  0
   -0.6860  -45.3610    7.1010 C   0  0  0  0  0  0  0  0  0  0  0  0
   -1.8560  -45.3770    6.2180 O   0  0  0  0  0  0  0  0  0  0  0  0
   -3.1060  -45.3200    6.7550 C   0  0  0  0  0  0  0  0  0  0  0  0
   -3.4580  -45.8020    8.0230 C   0  0  0  0  0  0  0  0  0  0  0  0
   -4.7860  -45.6810    8.4510 C   0  0  0  0  0  0  0  0  0  0  0  0
   -5.2040  -46.1900    9.7900 C   0  0  0  0  0  0  0  0  0  0  0  0
   -5.7200  -45.0810    7.5900 C   0  0  0  0  0  0  0  0  0  0  0  0
   -7.3610  -44.9570    8.1150 Cl  0  0  0  0  0  0  0  0  0  0  0  0
   -5.3800  -44.6080    6.3080 C   0  0  0  0  0  0  0  0  0  0  0  0
   -6.4100  -44.0300    5.3950 C   0  0  0  0  0  0  0  0  0  0  0  0
   -4.0550  -44.7330    5.8910 C   0  0  0  0  0  0  0  0  0  0  0  0
   -0.7790  -53.1310    6.6970 H   0  0  0  0  0  0  0  0  0  0  0  0
   -3.2170  -52.6700    6.4670 H   0  0  0  0  0  0  0  0  0  0  0  0
   -4.0420  -50.4080    5.9550 H   0  0  0  0  0  0  0  0  0  0  0  0
   -2.4890  -48.4930    5.6990 H   0  0  0  0  0  0  0  0  0  0  0  0
   -0.4290  -47.1230    5.1110 H   0  0  0  0  0  0  0  0  0  0  0  0
    1.3140  -46.9170    5.5680 H   0  0  0  0  0  0  0  0  0  0  0  0
    0.7710  -46.7060    7.9180 H   0  0  0  0  0  0  0  0  0  0  0  0
   -0.8830  -47.4230    7.6800 H   0  0  0  0  0  0  0  0  0  0  0  0
   -0.0300  -44.6720    6.5230 H   0  0  0  0  0  0  0  0  0  0  0  0
   -0.9670  -44.9260    8.0830 H   0  0  0  0  0  0  0  0  0  0  0  0
   -2.7300  -46.2920    8.6660 H   0  0  0  0  0  0  0  0  0  0  0  0
   -5.7530  -45.4010   10.3590 H   0  0  0  0  0  0  0  0  0  0  0  0
   -5.8930  -47.0630    9.6670 H   0  0  0  0  0  0  0  0  0  0  0  0
   -4.3280  -46.5250   10.3910 H   0  0  0  0  0  0  0  0  0  0  0  0
   -5.9330  -43.4810    4.5520 H   0  0  0  0  0  0  0  0  0  0  0  0
   -7.0340  -44.8590    4.9760 H   0  0  0  0  0  0  0  0  0  0  0  0
   -7.0870  -43.3280    5.9370 H   0  0  0  0  0  0  0  0  0  0  0  0
   -3.7480  -44.3900    4.9060 H   0  0  0  0  0  0  0  0  0  0  0  0
    1.1460  -50.9780    6.4430 N   0  0  0  0  0  0  0  0  0  0  0  0
    1.7300  -51.7900    6.6110 H   0  0  0  0  0  0  0  0  0  0  0  0
  1  2  2  0  0  0  0
  2  3  1  0  0  0  0
  2  4  1  0  0  0  0
  4 11  2  0  0  0  0
  4 43  1  0  0  0  0
  5  6  2  0  0  0  0
  5 10  1  0  0  0  0
  5 43  1  0  0  0  0
  6  7  1  0  0  0  0
  6 25  1  0  0  0  0
  7  8  2  0  0  0  0
  7 26  1  0  0  0  0
  8  9  1  0  0  0  0
  8 27  1  0  0  0  0
  9 10  2  0  0  0  0
  9 28  1  0  0  0  0
 10 11  1  0  0  0  0
 11 12  1  0  0  0  0
 12 29  1  0  0  0  0
 12 30  1  0  0  0  0
 12 13  1  0  0  0  0
 13 14  1  0  0  0  0
 13 31  1  0  0  0  0
 13 32  1  0  0  0  0
 14 15  1  0  0  0  0
 14 33  1  0  0  0  0
 14 34  1  0  0  0  0
 15 16  1  0  0  0  0
 16 17  2  0  0  0  0
 16 24  1  0  0  0  0
 17 18  1  0  0  0  0
 17 35  1  0  0  0  0
 18 19  1  0  0  0  0
 18 20  2  0  0  0  0
 19 36  1  0  0  0  0
 19 37  1  0  0  0  0
 19 38  1  0  0  0  0
 20 21  1  0  0  0  0
 20 22  1  0  0  0  0
 22 23  1  0  0  0  0
 22 24  2  0  0  0  0
 23 39  1  0  0  0  0
 23 40  1  0  0  0  0
 23 41  1  0  0  0  0
 24 42  1  0  0  0  0
 43 44  1  0  0  0  0
M  CHG  1   3  -1
M  END
$$$$
