p38a_2s
 OpenBabel02232411163D
Structure written by MMmdl.
 54 57  0  0  1  0  0  0  0  0999 V2000
   38.2390   36.4890   17.2400 C   0  0  0  0  0  0  0  0  0  0  0  0
   34.6220   35.1540   21.4180 C   0  0  0  0  0  0  0  0  0  0  0  0
   37.4590   36.0670   18.3130 C   0  0  0  0  0  0  0  0  0  0  0  0
   34.1870   39.2590   23.9350 C   0  0  0  0  0  0  0  0  0  0  0  0
   34.7220   38.0210   21.5270 C   0  0  0  0  0  0  0  0  0  0  0  0
   35.0520   37.3530   20.2980 C   0  0  0  0  0  0  0  0  0  0  0  0
   37.5830   36.6270   16.0090 C   0  0  0  0  0  0  0  0  0  0  0  0
   36.2290   36.3360   15.8210 C   0  0  0  0  0  0  0  0  0  0  0  0
   35.4700   35.9060   16.9150 C   0  0  0  0  0  0  0  0  0  0  0  0
   34.4760   37.2660   22.7090 C   0  0  0  0  0  0  0  0  0  0  0  0
   34.6420   39.4380   21.6410 C   0  0  0  0  0  0  0  0  0  0  0  0
   35.0440   36.0000   20.2730 C   0  0  0  0  0  0  0  0  0  0  0  0
   36.0900   35.7630   18.1590 C   0  0  0  0  0  0  0  0  0  0  0  0
   38.0060   35.9450   19.5160 F   0  0  0  0  0  0  0  0  0  0  0  0
   35.3650   35.1680   19.2020 O   0  0  0  0  0  0  0  0  0  0  0  0
   34.3840   40.0660   22.7960 N   0  0  0  0  0  0  0  0  0  0  0  0
   34.4070   33.9600   21.3660 O   0  0  0  0  0  0  0  0  0  0  0  0
   34.4480   35.8580   22.6620 N   0  0  0  0  0  0  0  0  0  0  0  0
   34.2340   37.8780   23.9130 N   0  0  0  0  0  0  0  0  0  0  0  0
   33.8440   39.8880   25.1070 N   0  0  0  0  0  0  0  0  0  0  0  0
   39.2970   36.7380   17.3590 H   0  0  0  0  0  0  0  0  0  0  0  0
   35.3070   37.9620   19.4270 H   0  0  0  0  0  0  0  0  0  0  0  0
   35.7530   36.4550   14.8450 H   0  0  0  0  0  0  0  0  0  0  0  0
   34.4010   35.6980   16.7910 H   0  0  0  0  0  0  0  0  0  0  0  0
   34.7900   40.0660   20.7460 H   0  0  0  0  0  0  0  0  0  0  0  0
   33.8930   40.9270   25.1530 H   0  0  0  0  0  0  0  0  0  0  0  0
   38.2790   37.0950   14.9760 F   0  0  0  0  0  0  0  0  0  0  0  0
   32.8340   39.2980   28.7420 C   0  0  0  0  0  0  0  0  0  0  0  0
   32.7870   39.8890   27.3270 C   0  0  0  0  0  0  0  0  0  0  0  0
   33.8420   39.2010   26.4360 C   0  0  0  0  0  0  0  0  0  0  0  0
   35.2370   39.2810   27.0920 C   0  0  0  0  0  0  0  0  0  0  0  0
   35.1670   38.7140   28.5160 C   0  0  0  0  0  0  0  0  0  0  0  0
   34.1620   39.3820   29.3100 O   0  0  0  0  0  0  0  0  0  0  0  0
   32.5060   38.2330   28.7430 H   0  0  0  0  0  0  0  0  0  0  0  0
   32.2340   39.9140   29.4520 H   0  0  0  0  0  0  0  0  0  0  0  0
   32.9920   40.9860   27.3790 H   0  0  0  0  0  0  0  0  0  0  0  0
   31.7700   39.7430   26.8910 H   0  0  0  0  0  0  0  0  0  0  0  0
   33.5670   38.1210   26.2950 H   0  0  0  0  0  0  0  0  0  0  0  0
   35.9700   38.6880   26.4950 H   0  0  0  0  0  0  0  0  0  0  0  0
   35.5800   40.3430   27.1240 H   0  0  0  0  0  0  0  0  0  0  0  0
   34.9460   37.6210   28.4980 H   0  0  0  0  0  0  0  0  0  0  0  0
   36.1010   38.9330   29.0830 H   0  0  0  0  0  0  0  0  0  0  0  0
   34.2300   35.0780   23.9210 C   0  0  0  0  0  0  0  0  0  0  0  0
   34.8900   34.1640   23.8860 H   0  0  0  0  0  0  0  0  0  0  0  0
   34.5660   35.7020   24.8000 H   0  0  0  0  0  0  0  0  0  0  0  0
   32.7680   34.6280   24.1660 C   0  0  2  0  0  0  0  0  0  0  0  0
   32.4610   33.4200   23.4620 O   0  0  0  0  0  0  0  0  0  0  0  0
   32.8900   33.4310   22.5660 H   0  0  0  0  0  0  0  0  0  0  0  0
   31.6790   35.6650   23.8040 C   0  0  0  0  0  0  0  0  0  0  0  0
   30.6690   35.1850   23.8280 H   0  0  0  0  0  0  0  0  0  0  0  0
   31.8740   36.1460   22.8250 H   0  0  0  0  0  0  0  0  0  0  0  0
   32.6690   34.3300   25.2450 H   0  0  0  0  0  0  0  0  0  0  0  0
   31.5830   36.6780   24.8090 O   0  0  0  0  0  0  0  0  0  0  0  0
   32.4150   37.2080   24.8150 H   0  0  0  0  0  0  0  0  0  0  0  0
  1  3  2  0  0  0  0
  1  7  1  0  0  0  0
  1 21  1  0  0  0  0
  2 12  1  0  0  0  0
  2 17  2  0  0  0  0
  2 18  1  0  0  0  0
  3 13  1  0  0  0  0
  3 14  1  0  0  0  0
  4 16  2  0  0  0  0
  4 19  1  0  0  0  0
  4 20  1  0  0  0  0
  5  6  1  0  0  0  0
  5 10  1  0  0  0  0
  5 11  2  0  0  0  0
  6 12  2  0  0  0  0
  6 22  1  0  0  0  0
  7  8  2  0  0  0  0
  7 27  1  0  0  0  0
  8  9  1  0  0  0  0
  8 23  1  0  0  0  0
  9 13  2  0  0  0  0
  9 24  1  0  0  0  0
 10 18  1  0  0  0  0
 10 19  2  0  0  0  0
 11 16  1  0  0  0  0
 11 25  1  0  0  0  0
 12 15  1  0  0  0  0
 13 15  1  0  0  0  0
 18 43  1  0  0  0  0
 20 26  1  0  0  0  0
 20 30  1  0  0  0  0
 28 29  1  0  0  0  0
 28 33  1  0  0  0  0
 28 34  1  0  0  0  0
 28 35  1  0  0  0  0
 29 30  1  0  0  0  0
 29 36  1  0  0  0  0
 29 37  1  0  0  0  0
 30 31  1  0  0  0  0
 30 38  1  0  0  0  0
 31 32  1  0  0  0  0
 31 39  1  0  0  0  0
 31 40  1  0  0  0  0
 32 33  1  0  0  0  0
 32 41  1  0  0  0  0
 32 42  1  0  0  0  0
 43 44  1  0  0  0  0
 43 45  1  0  0  0  0
 43 46  1  0  0  0  0
 46 47  1  0  0  0  0
 46 49  1  0  0  0  0
 46 52  1  1  0  0  0
 47 48  1  0  0  0  0
 49 50  1  0  0  0  0
 49 51  1  0  0  0  0
 49 53  1  0  0  0  0
 53 54  1  0  0  0  0
M  END
$$$$
