18633-1
 OpenBabel02232411163D
Structure written by MMmdl.
 42 43  0  0  0  0  0  0  0  0999 V2000
   23.8370   12.6400   30.3470 C   0  0  0  0  0  0  0  0  0  0  0  0
   23.4010   11.1900   30.4360 C   0  0  0  0  0  0  0  0  0  0  0  0
   22.1550   11.2660   31.2430 O   0  0  0  0  0  0  0  0  0  0  0  0
   21.5340   10.1180   31.5800 C   0  0  0  0  0  0  0  0  0  0  0  0
   22.0230    8.9370   31.1320 N   0  0  0  0  0  0  0  0  0  0  0  0
   21.3120    7.7870   31.4510 C   0  0  0  0  0  0  0  0  0  0  0  0
   20.1610    7.8090   32.2320 C   0  0  0  0  0  0  0  0  0  0  0  0
   19.6600    9.0520   32.7040 C   0  0  0  0  0  0  0  0  0  0  0  0
   18.5120    9.0840   33.4540 N   0  0  0  0  0  0  0  0  0  0  0  0
   20.3530   10.2580   32.3680 C   0  0  0  0  0  0  0  0  0  0  0  0
   19.9250   11.5520   32.7330 C   0  0  0  0  0  0  0  0  0  0  0  0
   19.6230   12.6420   32.9910 N   0  0  0  0  0  0  0  0  0  0  0  0
   21.8940    6.6350   30.8710 N   0  0  0  0  0  0  0  0  0  0  0  0
   21.3590    5.3210   30.8500 C   0  0  0  0  0  0  0  0  0  0  0  0
   20.3200    5.0360   31.4070 O   0  0  0  0  0  0  0  0  0  0  0  0
   22.1780    4.3490   30.0140 C   0  0  0  0  0  0  0  0  0  0  0  0
   23.4700    3.9640   30.6800 C   0  0  0  0  0  0  0  0  0  0  0  0
   23.5310    2.8460   31.5200 C   0  0  0  0  0  0  0  0  0  0  0  0
   24.7240    2.4870   32.1560 C   0  0  0  0  0  0  0  0  0  0  0  0
   25.8700    3.2550   31.9230 C   0  0  0  0  0  0  0  0  0  0  0  0
   25.8390    4.3730   31.0610 C   0  0  0  0  0  0  0  0  0  0  0  0
   24.6410    4.7140   30.4460 C   0  0  0  0  0  0  0  0  0  0  0  0
   27.1200    3.0270   32.4530 O   0  0  0  0  0  0  0  0  0  0  0  0
   27.2760    1.9280   33.3870 C   0  0  0  0  0  0  0  0  0  0  0  0
   24.0960   13.0490   31.3490 H   0  0  0  0  0  0  0  0  0  0  0  0
   23.0360   13.2710   29.8950 H   0  0  0  0  0  0  0  0  0  0  0  0
   24.7410   12.7020   29.6890 H   0  0  0  0  0  0  0  0  0  0  0  0
   23.1310   10.7640   29.4440 H   0  0  0  0  0  0  0  0  0  0  0  0
   24.1330   10.5540   30.9820 H   0  0  0  0  0  0  0  0  0  0  0  0
   19.6250    6.8880   32.4730 H   0  0  0  0  0  0  0  0  0  0  0  0
   18.0180    8.2110   33.7220 H   0  0  0  0  0  0  0  0  0  0  0  0
   18.1080    9.9670   33.7690 H   0  0  0  0  0  0  0  0  0  0  0  0
   22.7890    6.8040   30.3700 H   0  0  0  0  0  0  0  0  0  0  0  0
   21.5600    3.4290   29.8380 H   0  0  0  0  0  0  0  0  0  0  0  0
   22.3910    4.8140   29.0150 H   0  0  0  0  0  0  0  0  0  0  0  0
   22.6450    2.2260   31.6870 H   0  0  0  0  0  0  0  0  0  0  0  0
   24.7370    1.6120   32.8090 H   0  0  0  0  0  0  0  0  0  0  0  0
   26.7450    4.9560   30.8770 H   0  0  0  0  0  0  0  0  0  0  0  0
   24.6260    5.5690   29.7630 H   0  0  0  0  0  0  0  0  0  0  0  0
   28.3590    2.0020   33.6430 H   0  0  0  0  0  0  0  0  0  0  0  0
   27.0500    0.9620   32.8850 H   0  0  0  0  0  0  0  0  0  0  0  0
   26.6390    2.0900   34.2830 H   0  0  0  0  0  0  0  0  0  0  0  0
  1  2  1  0  0  0  0
  1 25  1  0  0  0  0
  1 26  1  0  0  0  0
  1 27  1  0  0  0  0
  2  3  1  0  0  0  0
  2 28  1  0  0  0  0
  2 29  1  0  0  0  0
  3  4  1  0  0  0  0
  4 10  2  0  0  0  0
  4  5  1  0  0  0  0
  5  6  2  0  0  0  0
  6  7  1  0  0  0  0
  6 13  1  0  0  0  0
  7  8  2  0  0  0  0
  7 30  1  0  0  0  0
  8  9  1  0  0  0  0
  8 10  1  0  0  0  0
  9 31  1  0  0  0  0
  9 32  1  0  0  0  0
 10 11  1  0  0  0  0
 11 12  3  0  0  0  0
 13 14  1  0  0  0  0
 13 33  1  0  0  0  0
 14 15  2  0  0  0  0
 14 16  1  0  0  0  0
 16 17  1  0  0  0  0
 16 34  1  0  0  0  0
 16 35  1  0  0  0  0
 17 22  2  0  0  0  0
 17 18  1  0  0  0  0
 18 19  2  0  0  0  0
 18 36  1  0  0  0  0
 19 20  1  0  0  0  0
 19 37  1  0  0  0  0
 20 21  2  0  0  0  0
 20 23  1  0  0  0  0
 21 22  1  0  0  0  0
 21 38  1  0  0  0  0
 22 39  1  0  0  0  0
 23 24  1  0  0  0  0
 24 40  1  0  0  0  0
 24 41  1  0  0  0  0
 24 42  1  0  0  0  0
M  END
$$$$
