18632-1
 OpenBabel02232411163D
Structure written by MMmdl.
 42 43  0  0  0  0  0  0  0  0999 V2000
   23.2100   10.9020   29.0610 C   0  0  0  0  0  0  0  0  0  0  0  0
   23.4760   11.1240   30.5340 C   0  0  0  0  0  0  0  0  0  0  0  0
   22.2070   11.1890   31.2890 O   0  0  0  0  0  0  0  0  0  0  0  0
   21.5680   10.0460   31.6210 C   0  0  0  0  0  0  0  0  0  0  0  0
   22.0470    8.8580   31.1860 N   0  0  0  0  0  0  0  0  0  0  0  0
   21.3150    7.7210   31.4900 C   0  0  0  0  0  0  0  0  0  0  0  0
   20.1520    7.7550   32.2530 C   0  0  0  0  0  0  0  0  0  0  0  0
   19.6690    9.0050   32.7270 C   0  0  0  0  0  0  0  0  0  0  0  0
   18.5150    9.0490   33.4680 N   0  0  0  0  0  0  0  0  0  0  0  0
   20.3850   10.2020   32.4040 C   0  0  0  0  0  0  0  0  0  0  0  0
   19.9790   11.5000   32.7790 C   0  0  0  0  0  0  0  0  0  0  0  0
   19.6970   12.5930   33.0470 N   0  0  0  0  0  0  0  0  0  0  0  0
   21.8920    6.5650   30.9120 N   0  0  0  0  0  0  0  0  0  0  0  0
   21.3100    5.2760   30.8220 C   0  0  0  0  0  0  0  0  0  0  0  0
   20.2500    5.0040   31.3430 O   0  0  0  0  0  0  0  0  0  0  0  0
   22.1150    4.3130   29.9650 C   0  0  0  0  0  0  0  0  0  0  0  0
   23.3970    3.8810   30.6320 C   0  0  0  0  0  0  0  0  0  0  0  0
   23.4130    2.7210   31.4210 C   0  0  0  0  0  0  0  0  0  0  0  0
   24.6090    2.3550   32.0500 C   0  0  0  0  0  0  0  0  0  0  0  0
   24.7840    1.2600   32.8630 O   0  0  0  0  0  0  0  0  0  0  0  0
   23.7150    0.2800   32.9350 C   0  0  0  0  0  0  0  0  0  0  0  0
   25.7880    3.1210   31.9140 C   0  0  0  0  0  0  0  0  0  0  0  0
   25.7510    4.2510   31.1080 C   0  0  0  0  0  0  0  0  0  0  0  0
   24.5660    4.6300   30.4580 C   0  0  0  0  0  0  0  0  0  0  0  0
   24.1540   11.0670   28.4860 H   0  0  0  0  0  0  0  0  0  0  0  0
   22.8660    9.8590   28.8630 H   0  0  0  0  0  0  0  0  0  0  0  0
   22.4430   11.6100   28.6750 H   0  0  0  0  0  0  0  0  0  0  0  0
   24.1300   10.3360   30.9710 H   0  0  0  0  0  0  0  0  0  0  0  0
   23.8570   12.1540   30.7430 H   0  0  0  0  0  0  0  0  0  0  0  0
   19.5960    6.8430   32.4760 H   0  0  0  0  0  0  0  0  0  0  0  0
   18.0180    8.1790   33.7400 H   0  0  0  0  0  0  0  0  0  0  0  0
   18.1200    9.9350   33.7830 H   0  0  0  0  0  0  0  0  0  0  0  0
   22.8070    6.7240   30.4440 H   0  0  0  0  0  0  0  0  0  0  0  0
   21.4790    3.4160   29.7470 H   0  0  0  0  0  0  0  0  0  0  0  0
   22.3530    4.8120   28.9870 H   0  0  0  0  0  0  0  0  0  0  0  0
   22.5130    2.1220   31.5350 H   0  0  0  0  0  0  0  0  0  0  0  0
   24.1620   -0.4910   33.6070 H   0  0  0  0  0  0  0  0  0  0  0  0
   23.5180   -0.1360   31.9240 H   0  0  0  0  0  0  0  0  0  0  0  0
   22.8060    0.7290   33.3890 H   0  0  0  0  0  0  0  0  0  0  0  0
   26.7080    2.8230   32.4210 H   0  0  0  0  0  0  0  0  0  0  0  0
   26.6550    4.8540   30.9690 H   0  0  0  0  0  0  0  0  0  0  0  0
   24.5870    5.5080   29.8110 H   0  0  0  0  0  0  0  0  0  0  0  0
  1  2  1  0  0  0  0
  1 25  1  0  0  0  0
  1 26  1  0  0  0  0
  1 27  1  0  0  0  0
  2  3  1  0  0  0  0
  2 28  1  0  0  0  0
  2 29  1  0  0  0  0
  3  4  1  0  0  0  0
  4 10  2  0  0  0  0
  4  5  1  0  0  0  0
  5  6  2  0  0  0  0
  6  7  1  0  0  0  0
  6 13  1  0  0  0  0
  7  8  2  0  0  0  0
  7 30  1  0  0  0  0
  8  9  1  0  0  0  0
  8 10  1  0  0  0  0
  9 31  1  0  0  0  0
  9 32  1  0  0  0  0
 10 11  1  0  0  0  0
 11 12  3  0  0  0  0
 13 14  1  0  0  0  0
 13 33  1  0  0  0  0
 14 15  2  0  0  0  0
 14 16  1  0  0  0  0
 16 17  1  0  0  0  0
 16 34  1  0  0  0  0
 16 35  1  0  0  0  0
 17 24  2  0  0  0  0
 17 18  1  0  0  0  0
 18 19  2  0  0  0  0
 18 36  1  0  0  0  0
 19 20  1  0  0  0  0
 19 22  1  0  0  0  0
 20 21  1  0  0  0  0
 21 37  1  0  0  0  0
 21 38  1  0  0  0  0
 21 39  1  0  0  0  0
 22 23  2  0  0  0  0
 22 40  1  0  0  0  0
 23 24  1  0  0  0  0
 23 41  1  0  0  0  0
 24 42  1  0  0  0  0
M  END
$$$$
