p38a_2z
 OpenBabel02232411163D
Structure written by MMmdl.
 45 47  0  0  0  0  0  0  0  0999 V2000
   36.3990   36.1090   15.7270 C   0  0  0  0  0  0  0  0  0  0  0  0
   34.4450   34.9450   21.1020 C   0  0  0  0  0  0  0  0  0  0  0  0
   35.7790   35.6000   16.8640 C   0  0  0  0  0  0  0  0  0  0  0  0
   33.7930   38.9250   23.7780 C   0  0  0  0  0  0  0  0  0  0  0  0
   32.7660   38.8520   26.1320 C   0  0  0  0  0  0  0  0  0  0  0  0
   34.7240   37.7930   21.4340 C   0  0  0  0  0  0  0  0  0  0  0  0
   35.3030   37.1580   20.2800 C   0  0  0  0  0  0  0  0  0  0  0  0
   37.6870   36.6340   15.9010 C   0  0  0  0  0  0  0  0  0  0  0  0
   38.3570   36.6400   17.1270 C   0  0  0  0  0  0  0  0  0  0  0  0
   37.6970   36.1590   18.2630 C   0  0  0  0  0  0  0  0  0  0  0  0
   34.0780   37.0100   22.4350 C   0  0  0  0  0  0  0  0  0  0  0  0
   34.7800   39.1950   21.6600 C   0  0  0  0  0  0  0  0  0  0  0  0
   35.1940   35.8150   20.1560 C   0  0  0  0  0  0  0  0  0  0  0  0
   36.4080   35.6380   18.1260 C   0  0  0  0  0  0  0  0  0  0  0  0
   33.2030   34.8350   23.2940 C   0  0  0  0  0  0  0  0  0  0  0  0
   34.5750   35.0500   16.7860 F   0  0  0  0  0  0  0  0  0  0  0  0
   35.7270   34.9930   19.1650 O   0  0  0  0  0  0  0  0  0  0  0  0
   34.3350   39.7730   22.7850 N   0  0  0  0  0  0  0  0  0  0  0  0
   34.2600   33.7560   20.9590 O   0  0  0  0  0  0  0  0  0  0  0  0
   33.9140   35.6260   22.2510 N   0  0  0  0  0  0  0  0  0  0  0  0
   33.6030   37.5700   23.5950 N   0  0  0  0  0  0  0  0  0  0  0  0
   33.4970   39.5150   24.9860 N   0  0  0  0  0  0  0  0  0  0  0  0
   35.9020   36.1190   14.7550 H   0  0  0  0  0  0  0  0  0  0  0  0
   33.5140   37.5940   26.5890 C   0  0  0  0  0  0  0  0  0  0  0  0
   35.8220   37.7860   19.5540 H   0  0  0  0  0  0  0  0  0  0  0  0
   39.3710   37.0400   17.2120 H   0  0  0  0  0  0  0  0  0  0  0  0
   38.1870   36.2150   19.2380 H   0  0  0  0  0  0  0  0  0  0  0  0
   35.2010   39.8570   20.8870 H   0  0  0  0  0  0  0  0  0  0  0  0
   33.8180   34.8000   24.2330 H   0  0  0  0  0  0  0  0  0  0  0  0
   32.2160   35.3150   23.5340 H   0  0  0  0  0  0  0  0  0  0  0  0
   33.0230   33.7900   22.9320 H   0  0  0  0  0  0  0  0  0  0  0  0
   33.5640   40.5540   25.0390 H   0  0  0  0  0  0  0  0  0  0  0  0
   38.2820   37.1840   14.8460 F   0  0  0  0  0  0  0  0  0  0  0  0
   32.7880   39.9190   27.2860 C   0  0  0  0  0  0  0  0  0  0  0  0
   31.3140   38.5550   25.7340 C   0  0  0  0  0  0  0  0  0  0  0  0
   32.0580   39.4550   28.4250 O   0  0  0  0  0  0  0  0  0  0  0  0
   32.5670   38.7380   28.8790 H   0  0  0  0  0  0  0  0  0  0  0  0
   33.8310   40.1730   27.5810 H   0  0  0  0  0  0  0  0  0  0  0  0
   32.2190   40.8290   26.9910 H   0  0  0  0  0  0  0  0  0  0  0  0
   30.7280   38.3260   26.6550 H   0  0  0  0  0  0  0  0  0  0  0  0
   30.8480   39.4320   25.2350 H   0  0  0  0  0  0  0  0  0  0  0  0
   31.2600   37.6780   25.0520 H   0  0  0  0  0  0  0  0  0  0  0  0
   33.0300   37.1620   27.4940 H   0  0  0  0  0  0  0  0  0  0  0  0
   33.4880   36.8010   25.8020 H   0  0  0  0  0  0  0  0  0  0  0  0
   34.5780   37.8240   26.8200 H   0  0  0  0  0  0  0  0  0  0  0  0
  1  3  2  0  0  0  0
  1  8  1  0  0  0  0
  1 23  1  0  0  0  0
  2 13  1  0  0  0  0
  2 19  2  0  0  0  0
  2 20  1  0  0  0  0
  3 14  1  0  0  0  0
  3 16  1  0  0  0  0
  4 18  2  0  0  0  0
  4 21  1  0  0  0  0
  4 22  1  0  0  0  0
  5 22  1  0  0  0  0
  5 24  1  0  0  0  0
  5 34  1  0  0  0  0
  5 35  1  0  0  0  0
  6  7  1  0  0  0  0
  6 11  1  0  0  0  0
  6 12  2  0  0  0  0
  7 13  2  0  0  0  0
  7 25  1  0  0  0  0
  8  9  2  0  0  0  0
  8 33  1  0  0  0  0
  9 10  1  0  0  0  0
  9 26  1  0  0  0  0
 10 14  2  0  0  0  0
 10 27  1  0  0  0  0
 11 20  1  0  0  0  0
 11 21  2  0  0  0  0
 12 18  1  0  0  0  0
 12 28  1  0  0  0  0
 13 17  1  0  0  0  0
 14 17  1  0  0  0  0
 15 20  1  0  0  0  0
 15 29  1  0  0  0  0
 15 30  1  0  0  0  0
 15 31  1  0  0  0  0
 22 32  1  0  0  0  0
 24 43  1  0  0  0  0
 24 44  1  0  0  0  0
 24 45  1  0  0  0  0
 34 36  1  0  0  0  0
 34 38  1  0  0  0  0
 34 39  1  0  0  0  0
 35 40  1  0  0  0  0
 35 41  1  0  0  0  0
 35 42  1  0  0  0  0
 36 37  1  0  0  0  0
M  END
$$$$
