CAT-17d
 OpenBabel02232411143D
Structure written by MMmdl.
 42 45  0  0  1  0  0  0  0  0999 V2000
   11.6260   -2.3510    1.2530 C   0  0  0  0  0  0  0  0  0  0  0  0
   12.9730   -2.3070    0.6470 N   0  0  0  0  0  0  0  0  0  0  0  0
   14.1610   -2.3100    1.3690 C   0  0  0  0  0  0  0  0  0  0  0  0
   14.3060   -2.4270    2.7200 N   0  0  0  0  0  0  0  0  0  0  0  0
   15.2540   -2.2300    0.4930 N   0  3  0  0  0  0  0  0  0  0  0  0
   14.8070   -2.5590   -0.9130 C   0  0  1  0  0  0  0  0  0  0  0  0
   15.3930   -1.5460   -1.8730 C   0  0  0  0  0  0  0  0  0  0  0  0
   16.2640   -1.9390   -2.8960 C   0  0  0  0  0  0  0  0  0  0  0  0
   16.7210   -0.9880   -3.8140 C   0  0  0  0  0  0  0  0  0  0  0  0
   16.3340    0.3490   -3.7060 C   0  0  0  0  0  0  0  0  0  0  0  0
   15.5060    0.7610   -2.6460 C   0  0  0  0  0  0  0  0  0  0  0  0
   15.1320    2.1770   -2.4780 C   0  0  0  0  0  0  0  0  0  0  0  0
   14.6180    2.9330   -3.5440 C   0  0  0  0  0  0  0  0  0  0  0  0
   14.2180    4.2500   -3.3130 C   0  0  0  0  0  0  0  0  0  0  0  0
   14.3410    4.7840   -2.0200 C   0  0  0  0  0  0  0  0  0  0  0  0
   14.8790    4.0800   -0.9880 N   0  0  0  0  0  0  0  0  0  0  0  0
   15.2670    2.8010   -1.2170 C   0  0  0  0  0  0  0  0  0  0  0  0
   15.0290   -0.1970   -1.7390 C   0  0  0  0  0  0  0  0  0  0  0  0
   15.0300   -4.0180   -1.2800 C   0  0  0  0  0  0  0  0  0  0  0  0
   16.2630   -4.7630   -0.7980 C   0  0  0  0  0  0  0  0  0  0  0  0
   14.9060   -5.1210   -0.2350 C   0  0  0  0  0  0  0  0  0  0  0  0
   13.2540   -2.3890   -0.8050 C   0  0  0  0  0  0  0  0  0  0  0  0
   12.3890   -2.3320   -1.6180 O   0  0  0  0  0  0  0  0  0  0  0  0
   11.1330   -1.3490    1.1330 H   0  0  0  0  0  0  0  0  0  0  0  0
   11.0150   -3.1410    0.7360 H   0  0  0  0  0  0  0  0  0  0  0  0
   11.6840   -2.6090    2.3420 H   0  0  0  0  0  0  0  0  0  0  0  0
   13.5880   -2.0520    3.3870 H   0  0  0  0  0  0  0  0  0  0  0  0
   16.1840   -2.5860    0.8520 H   0  0  0  0  0  0  0  0  0  0  0  0
   16.5900   -2.9780   -2.9780 H   0  0  0  0  0  0  0  0  0  0  0  0
   17.3900   -1.2970   -4.6240 H   0  0  0  0  0  0  0  0  0  0  0  0
   16.6830    1.0720   -4.4500 H   0  0  0  0  0  0  0  0  0  0  0  0
   14.5200    2.4920   -4.5420 H   0  0  0  0  0  0  0  0  0  0  0  0
   13.8040    4.8550   -4.1270 H   0  0  0  0  0  0  0  0  0  0  0  0
   13.9870    5.8020   -1.7920 H   0  0  0  0  0  0  0  0  0  0  0  0
   15.6970    2.2510   -0.3670 H   0  0  0  0  0  0  0  0  0  0  0  0
   14.3750    0.1010   -0.9210 H   0  0  0  0  0  0  0  0  0  0  0  0
   14.6640   -4.2460   -2.2980 H   0  0  0  0  0  0  0  0  0  0  0  0
   16.9850   -4.2450   -0.1630 H   0  0  0  0  0  0  0  0  0  0  0  0
   16.7750   -5.4310   -1.4900 H   0  0  0  0  0  0  0  0  0  0  0  0
   14.6830   -4.8600    0.8070 H   0  0  0  0  0  0  0  0  0  0  0  0
   14.4230   -6.0620   -0.5320 H   0  0  0  0  0  0  0  0  0  0  0  0
   15.2850   -2.3690    3.1230 H   0  0  0  0  0  0  0  0  0  0  0  0
  1  2  1  0  0  0  0
  1 24  1  0  0  0  0
  1 25  1  0  0  0  0
  1 26  1  0  0  0  0
  2  3  1  0  0  0  0
  2 22  1  0  0  0  0
  3  4  1  0  0  0  0
  3  5  2  0  0  0  0
  4 27  1  0  0  0  0
  4 42  1  0  0  0  0
  5  6  1  0  0  0  0
  5 28  1  0  0  0  0
  6  7  1  6  0  0  0
  6 19  1  0  0  0  0
  6 22  1  0  0  0  0
  7  8  2  0  0  0  0
  7 18  1  0  0  0  0
  8  9  1  0  0  0  0
  8 29  1  0  0  0  0
  9 10  2  0  0  0  0
  9 30  1  0  0  0  0
 10 11  1  0  0  0  0
 10 31  1  0  0  0  0
 11 12  1  0  0  0  0
 11 18  2  0  0  0  0
 12 13  2  0  0  0  0
 12 17  1  0  0  0  0
 13 14  1  0  0  0  0
 13 32  1  0  0  0  0
 14 15  2  0  0  0  0
 14 33  1  0  0  0  0
 15 16  1  0  0  0  0
 15 34  1  0  0  0  0
 16 17  2  0  0  0  0
 17 35  1  0  0  0  0
 18 36  1  0  0  0  0
 19 20  1  0  0  0  0
 19 21  1  0  0  0  0
 19 37  1  0  0  0  0
 20 21  1  0  0  0  0
 20 38  1  0  0  0  0
 20 39  1  0  0  0  0
 21 40  1  0  0  0  0
 21 41  1  0  0  0  0
 22 23  2  0  0  0  0
M  CHG  1   5   1
M  END
$$$$
