p38a_3flz
 OpenBabel02232411163D
Structure written by MMmdl.
 46 49  0  0  0  0  0  0  0  0999 V2000
   35.1240   35.1260   18.9930 O   0  0  0  0  0  0  0  0  0  0  0  0
   34.9860   37.2090   20.2710 C   0  0  0  0  0  0  0  0  0  0  0  0
   34.1100   37.0200   22.5850 C   0  0  0  0  0  0  0  0  0  0  0  0
   34.6040   37.8220   21.5120 C   0  0  0  0  0  0  0  0  0  0  0  0
   34.6880   39.2220   21.7420 C   0  0  0  0  0  0  0  0  0  0  0  0
   33.8850   38.9420   23.9300 C   0  0  0  0  0  0  0  0  0  0  0  0
   34.8690   35.8650   20.1430 C   0  0  0  0  0  0  0  0  0  0  0  0
   36.1610   35.5910   18.1650 C   0  0  0  0  0  0  0  0  0  0  0  0
   33.4740   34.8230   23.5720 C   0  0  0  0  0  0  0  0  0  0  0  0
   34.0560   37.9270   27.0190 C   0  0  0  0  0  0  0  0  0  0  0  0
   37.4220   35.9350   18.6630 C   0  0  0  0  0  0  0  0  0  0  0  0
   38.1450   36.2670   16.3710 C   0  0  0  0  0  0  0  0  0  0  0  0
   38.4170   36.2770   17.7430 C   0  0  0  0  0  0  0  0  0  0  0  0
   36.8780   35.9050   15.9010 C   0  0  0  0  0  0  0  0  0  0  0  0
   34.1950   33.7670   21.1020 O   0  0  0  0  0  0  0  0  0  0  0  0
   34.3410   34.9660   21.2010 C   0  0  0  0  0  0  0  0  0  0  0  0
   35.8640   35.5580   16.7970 C   0  0  0  0  0  0  0  0  0  0  0  0
   34.3500   39.7960   22.9060 N   0  0  0  0  0  0  0  0  0  0  0  0
   33.9830   35.6310   22.4280 N   0  0  0  0  0  0  0  0  0  0  0  0
   33.7500   37.5730   23.7880 N   0  0  0  0  0  0  0  0  0  0  0  0
   33.5410   39.5140   25.1280 N   0  0  0  0  0  0  0  0  0  0  0  0
   32.9680   38.7170   26.2620 C   0  0  0  0  0  0  0  0  0  0  0  0
   32.2040   39.6650   27.2080 C   0  0  0  0  0  0  0  0  0  0  0  0
   33.1200   40.4250   28.1750 C   0  0  0  0  0  0  0  0  0  0  0  0
   34.0510   39.5570   28.8530 O   0  0  0  0  0  0  0  0  0  0  0  0
   34.8930   38.8170   27.9380 C   0  0  0  0  0  0  0  0  0  0  0  0
   35.3680   37.8510   19.4720 H   0  0  0  0  0  0  0  0  0  0  0  0
   35.0390   39.8870   20.9360 H   0  0  0  0  0  0  0  0  0  0  0  0
   33.4790   33.7340   23.3140 H   0  0  0  0  0  0  0  0  0  0  0  0
   34.1190   34.9890   24.4780 H   0  0  0  0  0  0  0  0  0  0  0  0
   32.4250   35.1390   23.8260 H   0  0  0  0  0  0  0  0  0  0  0  0
   33.5390   37.1370   27.6220 H   0  0  0  0  0  0  0  0  0  0  0  0
   34.7270   37.4020   26.2950 H   0  0  0  0  0  0  0  0  0  0  0  0
   37.6250   35.9680   19.7320 H   0  0  0  0  0  0  0  0  0  0  0  0
   38.9150   36.5830   15.6720 H   0  0  0  0  0  0  0  0  0  0  0  0
   39.4090   36.5710   18.0890 H   0  0  0  0  0  0  0  0  0  0  0  0
   36.6700   35.9190   14.8310 H   0  0  0  0  0  0  0  0  0  0  0  0
   34.8640   35.3150   16.4350 H   0  0  0  0  0  0  0  0  0  0  0  0
   33.6410   40.5380   25.2590 H   0  0  0  0  0  0  0  0  0  0  0  0
   32.2310   37.9800   25.8250 H   0  0  0  0  0  0  0  0  0  0  0  0
   31.6250   40.4070   26.6040 H   0  0  0  0  0  0  0  0  0  0  0  0
   31.4740   39.0480   27.7880 H   0  0  0  0  0  0  0  0  0  0  0  0
   33.6970   41.2100   27.6360 H   0  0  0  0  0  0  0  0  0  0  0  0
   32.5380   40.8590   29.0190 H   0  0  0  0  0  0  0  0  0  0  0  0
   35.5170   38.2110   28.6340 H   0  0  0  0  0  0  0  0  0  0  0  0
   35.5070   39.5370   27.3510 H   0  0  0  0  0  0  0  0  0  0  0  0
  1  7  1  0  0  0  0
  1  8  1  0  0  0  0
  2  4  1  0  0  0  0
  2  7  2  0  0  0  0
  2 27  1  0  0  0  0
  3  4  2  0  0  0  0
  3 19  1  0  0  0  0
  3 20  1  0  0  0  0
  4  5  1  0  0  0  0
  5 18  2  0  0  0  0
  5 28  1  0  0  0  0
  6 18  1  0  0  0  0
  6 20  2  0  0  0  0
  6 21  1  0  0  0  0
  7 16  1  0  0  0  0
  8 11  2  0  0  0  0
  8 17  1  0  0  0  0
  9 19  1  0  0  0  0
  9 29  1  0  0  0  0
  9 30  1  0  0  0  0
  9 31  1  0  0  0  0
 10 22  1  0  0  0  0
 10 26  1  0  0  0  0
 10 32  1  0  0  0  0
 10 33  1  0  0  0  0
 11 13  1  0  0  0  0
 11 34  1  0  0  0  0
 12 13  2  0  0  0  0
 12 14  1  0  0  0  0
 12 35  1  0  0  0  0
 13 36  1  0  0  0  0
 14 17  2  0  0  0  0
 14 37  1  0  0  0  0
 15 16  2  0  0  0  0
 16 19  1  0  0  0  0
 17 38  1  0  0  0  0
 21 22  1  0  0  0  0
 21 39  1  0  0  0  0
 22 23  1  0  0  0  0
 22 40  1  0  0  0  0
 23 24  1  0  0  0  0
 23 41  1  0  0  0  0
 23 42  1  0  0  0  0
 24 25  1  0  0  0  0
 24 43  1  0  0  0  0
 24 44  1  0  0  0  0
 25 26  1  0  0  0  0
 26 45  1  0  0  0  0
 26 46  1  0  0  0  0
M  END
$$$$
