18624-1
                    3D
 Schrodinger Suite 2022-3.
 38 39  0  0  1  0  0  0  0  0999 V2000
   25.8180    4.7060   30.3180 C   0  0  0  0  0  0  0  0  0  0  0  0
   24.4890    4.8300   29.9020 C   0  0  0  0  0  0  0  0  0  0  0  0
   23.4870    4.0530   30.5030 C   0  0  0  0  0  0  0  0  0  0  0  0
   23.8360    3.1260   31.4970 C   0  0  0  0  0  0  0  0  0  0  0  0
   25.1660    3.0070   31.9110 C   0  0  0  0  0  0  0  0  0  0  0  0
   26.1580    3.8010   31.3280 C   0  0  0  0  0  0  0  0  0  0  0  0
   22.0470    4.2040   30.0880 C   0  0  0  0  0  0  0  0  0  0  0  0
   21.2740    5.2110   30.9240 C   0  0  0  0  0  0  0  0  0  0  0  0
   21.8510    6.5040   30.9500 N   0  0  0  0  0  0  0  0  0  0  0  0
   21.2860    7.6700   31.5190 C   0  0  0  0  0  0  0  0  0  0  0  0
   20.2210    4.9620   31.4710 O   0  0  0  0  0  0  0  0  0  0  0  0
   22.0230    8.8000   31.2010 N   0  0  0  0  0  0  0  0  0  0  0  0
   21.5540    9.9940   31.6310 C   0  0  0  0  0  0  0  0  0  0  0  0
   20.3710   10.1650   32.4120 C   0  0  0  0  0  0  0  0  0  0  0  0
   19.6500    8.9750   32.7480 C   0  0  0  0  0  0  0  0  0  0  0  0
   20.1280    7.7180   32.2880 C   0  0  0  0  0  0  0  0  0  0  0  0
   18.4950    9.0300   33.4860 N   0  0  0  0  0  0  0  0  0  0  0  0
   19.9710   11.4680   32.7750 C   0  0  0  0  0  0  0  0  0  0  0  0
   22.2060   11.1290   31.2990 O   0  0  0  0  0  0  0  0  0  0  0  0
   23.4810   11.0510   30.5540 C   0  0  0  0  0  0  0  0  0  0  0  0
   23.2250   10.8300   29.0780 C   0  0  0  0  0  0  0  0  0  0  0  0
   19.6930   12.5640   33.0330 N   0  0  0  0  0  0  0  0  0  0  0  0
   26.5930    5.3200   29.8500 H   0  0  0  0  0  0  0  0  0  0  0  0
   23.0780    2.4800   31.9450 H   0  0  0  0  0  0  0  0  0  0  0  0
   19.5700    6.8110   32.5300 H   0  0  0  0  0  0  0  0  0  0  0  0
   21.5380    3.2070   30.1720 H   0  0  0  0  0  0  0  0  0  0  0  0
   21.9850    4.5380   29.0200 H   0  0  0  0  0  0  0  0  0  0  0  0
   22.7530    6.6520   30.4560 H   0  0  0  0  0  0  0  0  0  0  0  0
   17.9980    8.1640   33.7690 H   0  0  0  0  0  0  0  0  0  0  0  0
   18.1040    9.9200   33.7960 H   0  0  0  0  0  0  0  0  0  0  0  0
   24.1220   10.2560   30.9960 H   0  0  0  0  0  0  0  0  0  0  0  0
   23.8710   12.0760   30.7660 H   0  0  0  0  0  0  0  0  0  0  0  0
   24.1800   10.9730   28.5130 H   0  0  0  0  0  0  0  0  0  0  0  0
   22.8590    9.7950   28.8780 H   0  0  0  0  0  0  0  0  0  0  0  0
   22.4790   11.5560   28.6820 H   0  0  0  0  0  0  0  0  0  0  0  0
   27.1970    3.7100   31.6550 H   0  0  0  0  0  0  0  0  0  0  0  0
   25.4320    2.2870   32.6910 H   0  0  0  0  0  0  0  0  0  0  0  0
   24.2520    5.5380   29.1040 H   0  0  0  0  0  0  0  0  0  0  0  0
  1  2  1  0  0  0  0
  1  6  2  0  0  0  0
  1 23  1  0  0  0  0
  2  3  2  0  0  0  0
  2 38  1  0  0  0  0
  3  4  1  0  0  0  0
  3  7  1  0  0  0  0
  4  5  2  0  0  0  0
  4 24  1  0  0  0  0
  5  6  1  0  0  0  0
  5 37  1  0  0  0  0
  6 36  1  0  0  0  0
  7  8  1  0  0  0  0
  7 26  1  0  0  0  0
  7 27  1  0  0  0  0
  8  9  1  0  0  0  0
  8 11  2  0  0  0  0
  9 10  1  0  0  0  0
  9 28  1  0  0  0  0
 10 12  1  0  0  0  0
 10 16  2  0  0  0  0
 12 13  2  0  0  0  0
 13 14  1  0  0  0  0
 13 19  1  0  0  0  0
 14 15  2  0  0  0  0
 14 18  1  0  0  0  0
 15 16  1  0  0  0  0
 15 17  1  0  0  0  0
 16 25  1  0  0  0  0
 17 29  1  0  0  0  0
 17 30  1  0  0  0  0
 18 22  3  0  0  0  0
 19 20  1  0  0  0  0
 20 21  1  0  0  0  0
 20 31  1  0  0  0  0
 20 32  1  0  0  0  0
 21 33  1  0  0  0  0
 21 34  1  0  0  0  0
 21 35  1  0  0  0  0
M  END
$$$$
