CAT-13b
 OpenBabel02232411143D
Structure written by MMmdl.
 42 44  0  0  1  0  0  0  0  0999 V2000
   14.5650   -5.1620   -0.1740 C   0  0  0  0  0  0  0  0  0  0  0  0
   15.2730   -4.2070   -1.1360 C   0  0  0  0  0  0  0  0  0  0  0  0
   14.9330   -2.7240   -0.8940 C   0  0  2  0  0  0  0  0  0  0  0  0
   15.4840   -1.7150   -1.8820 C   0  0  0  0  0  0  0  0  0  0  0  0
   16.2380   -2.1020   -2.9960 C   0  0  0  0  0  0  0  0  0  0  0  0
   16.6620   -1.1340   -3.9130 C   0  0  0  0  0  0  0  0  0  0  0  0
   16.3530    0.2140   -3.7250 C   0  0  0  0  0  0  0  0  0  0  0  0
   15.6310    0.6190   -2.5890 C   0  0  0  0  0  0  0  0  0  0  0  0
   15.3390    2.0490   -2.3400 C   0  0  0  0  0  0  0  0  0  0  0  0
   15.5320    2.5860   -1.0560 C   0  0  0  0  0  0  0  0  0  0  0  0
   15.2050    3.9170   -0.7860 C   0  0  0  0  0  0  0  0  0  0  0  0
   14.7020    4.7380   -1.7980 C   0  0  0  0  0  0  0  0  0  0  0  0
   14.5630    4.2050   -3.0840 C   0  0  0  0  0  0  0  0  0  0  0  0
   14.0030    5.2280   -4.3470 Cl  0  0  0  0  0  0  0  0  0  0  0  0
   14.8620    2.8720   -3.3730 C   0  0  0  0  0  0  0  0  0  0  0  0
   15.1910   -0.3550   -1.6800 C   0  0  0  0  0  0  0  0  0  0  0  0
   15.3490   -2.3300    0.5070 N   0  3  0  0  0  0  0  0  0  0  0  0
   14.2310   -2.3470    1.3540 C   0  0  0  0  0  0  0  0  0  0  0  0
   14.3300   -2.4050    2.7100 N   0  0  0  0  0  0  0  0  0  0  0  0
   13.0620   -2.3700    0.5990 N   0  0  0  0  0  0  0  0  0  0  0  0
   11.7080   -2.2620    1.1790 C   0  0  0  0  0  0  0  0  0  0  0  0
   13.3790   -2.5690   -0.8340 C   0  0  0  0  0  0  0  0  0  0  0  0
   12.5350   -2.5790   -1.6700 O   0  0  0  0  0  0  0  0  0  0  0  0
   13.4750   -5.2210   -0.3900 H   0  0  0  0  0  0  0  0  0  0  0  0
   14.9910   -6.1870   -0.2930 H   0  0  0  0  0  0  0  0  0  0  0  0
   14.7110   -4.8610    0.8880 H   0  0  0  0  0  0  0  0  0  0  0  0
   14.9790   -4.4750   -2.1840 H   0  0  0  0  0  0  0  0  0  0  0  0
   16.3830   -4.3340   -1.0270 H   0  0  0  0  0  0  0  0  0  0  0  0
   16.5030   -3.1470   -3.1590 H   0  0  0  0  0  0  0  0  0  0  0  0
   17.2510   -1.4340   -4.7850 H   0  0  0  0  0  0  0  0  0  0  0  0
   16.6830    0.9510   -4.4640 H   0  0  0  0  0  0  0  0  0  0  0  0
   15.9310    1.9550   -0.2600 H   0  0  0  0  0  0  0  0  0  0  0  0
   15.3370    4.3070    0.2280 H   0  0  0  0  0  0  0  0  0  0  0  0
   14.4060    5.7670   -1.5800 H   0  0  0  0  0  0  0  0  0  0  0  0
   14.7200    2.4720   -4.3820 H   0  0  0  0  0  0  0  0  0  0  0  0
   14.6220   -0.0580   -0.8000 H   0  0  0  0  0  0  0  0  0  0  0  0
   16.2600   -2.7000    0.8910 H   0  0  0  0  0  0  0  0  0  0  0  0
   13.5860   -2.0250    3.3430 H   0  0  0  0  0  0  0  0  0  0  0  0
   11.6990   -2.6430    2.2360 H   0  0  0  0  0  0  0  0  0  0  0  0
   11.3840   -1.1880    1.1650 H   0  0  0  0  0  0  0  0  0  0  0  0
   10.9950   -2.8830    0.5740 H   0  0  0  0  0  0  0  0  0  0  0  0
   15.2930   -2.3530    3.1470 H   0  0  0  0  0  0  0  0  0  0  0  0
  1  2  1  0  0  0  0
  1 24  1  0  0  0  0
  1 25  1  0  0  0  0
  1 26  1  0  0  0  0
  2 27  1  0  0  0  0
  2 28  1  0  0  0  0
  3  2  1  6  0  0  0
  3  4  1  0  0  0  0
  3 17  1  0  0  0  0
  3 22  1  0  0  0  0
  4  5  2  0  0  0  0
  4 16  1  0  0  0  0
  5  6  1  0  0  0  0
  5 29  1  0  0  0  0
  6  7  2  0  0  0  0
  6 30  1  0  0  0  0
  7  8  1  0  0  0  0
  7 31  1  0  0  0  0
  8  9  1  0  0  0  0
  8 16  2  0  0  0  0
  9 10  2  0  0  0  0
  9 15  1  0  0  0  0
 10 11  1  0  0  0  0
 10 32  1  0  0  0  0
 11 12  2  0  0  0  0
 11 33  1  0  0  0  0
 12 13  1  0  0  0  0
 12 34  1  0  0  0  0
 13 14  1  0  0  0  0
 13 15  2  0  0  0  0
 15 35  1  0  0  0  0
 16 36  1  0  0  0  0
 17 18  2  0  0  0  0
 17 37  1  0  0  0  0
 18 19  1  0  0  0  0
 18 20  1  0  0  0  0
 19 38  1  0  0  0  0
 19 42  1  0  0  0  0
 20 21  1  0  0  0  0
 20 22  1  0  0  0  0
 21 39  1  0  0  0  0
 21 40  1  0  0  0  0
 21 41  1  0  0  0  0
 22 23  2  0  0  0  0
M  CHG  1  17   1
M  END
$$$$
