p38a_2p
 OpenBabel02232411163D
Structure written by MMmdl.
 58 61  0  0  0  0  0  0  0  0999 V2000
   36.3480   36.0500   15.7760 C   0  0  0  0  0  0  0  0  0  0  0  0
   34.6600   35.0010   21.3800 C   0  0  0  0  0  0  0  0  0  0  0  0
   35.6620   35.5770   16.8910 C   0  0  0  0  0  0  0  0  0  0  0  0
   34.0450   39.1040   23.8620 C   0  0  0  0  0  0  0  0  0  0  0  0
   34.7360   37.8640   21.4970 C   0  0  0  0  0  0  0  0  0  0  0  0
   35.1380   37.2020   20.2860 C   0  0  0  0  0  0  0  0  0  0  0  0
   37.6430   36.5360   15.9980 C   0  0  0  0  0  0  0  0  0  0  0  0
   38.2630   36.5300   17.2500 C   0  0  0  0  0  0  0  0  0  0  0  0
   37.5400   36.0860   18.3630 C   0  0  0  0  0  0  0  0  0  0  0  0
   34.4210   37.1110   22.6680 C   0  0  0  0  0  0  0  0  0  0  0  0
   34.6650   39.2810   21.6000 C   0  0  0  0  0  0  0  0  0  0  0  0
   35.1190   35.8510   20.2490 C   0  0  0  0  0  0  0  0  0  0  0  0
   36.2380   35.6100   18.1770 C   0  0  0  0  0  0  0  0  0  0  0  0
   34.4440   35.0680   16.7680 F   0  0  0  0  0  0  0  0  0  0  0  0
   35.4720   35.0180   19.1890 O   0  0  0  0  0  0  0  0  0  0  0  0
   34.3330   39.9080   22.7340 N   0  0  0  0  0  0  0  0  0  0  0  0
   34.4600   33.8080   21.3110 O   0  0  0  0  0  0  0  0  0  0  0  0
   34.4720   35.7030   22.6250 N   0  0  0  0  0  0  0  0  0  0  0  0
   34.0610   37.7230   23.8440 N   0  0  0  0  0  0  0  0  0  0  0  0
   33.7760   39.8030   25.0130 N   0  0  0  0  0  0  0  0  0  0  0  0
   35.8920   36.0650   14.7840 H   0  0  0  0  0  0  0  0  0  0  0  0
   35.4590   37.8180   19.4410 H   0  0  0  0  0  0  0  0  0  0  0  0
   39.2870   36.8970   17.3710 H   0  0  0  0  0  0  0  0  0  0  0  0
   37.9880   36.1350   19.3570 H   0  0  0  0  0  0  0  0  0  0  0  0
   34.8840   39.9090   20.7190 H   0  0  0  0  0  0  0  0  0  0  0  0
   33.7590   40.8440   24.9570 H   0  0  0  0  0  0  0  0  0  0  0  0
   38.2960   37.0630   14.9650 F   0  0  0  0  0  0  0  0  0  0  0  0
   33.4720   37.8010   28.2950 C   0  0  0  0  0  0  0  0  0  0  0  0
   34.0930   38.2040   26.9500 C   0  0  0  0  0  0  0  0  0  0  0  0
   33.2180   39.2880   26.2980 C   0  0  0  0  0  0  0  0  0  0  0  0
   31.7680   38.7810   26.1500 C   0  0  0  0  0  0  0  0  0  0  0  0
   31.2480   38.3670   27.5330 C   0  0  0  0  0  0  0  0  0  0  0  0
   32.0990   37.3760   28.1510 O   0  0  0  0  0  0  0  0  0  0  0  0
   33.5170   38.6450   29.0220 H   0  0  0  0  0  0  0  0  0  0  0  0
   33.9640   36.8870   28.7010 H   0  0  0  0  0  0  0  0  0  0  0  0
   34.1620   37.3060   26.2870 H   0  0  0  0  0  0  0  0  0  0  0  0
   35.1270   38.5930   27.1140 H   0  0  0  0  0  0  0  0  0  0  0  0
   33.2190   40.2020   26.9690 H   0  0  0  0  0  0  0  0  0  0  0  0
   31.1220   39.5860   25.7280 H   0  0  0  0  0  0  0  0  0  0  0  0
   31.7430   37.9050   25.4580 H   0  0  0  0  0  0  0  0  0  0  0  0
   31.1740   39.2470   28.2110 H   0  0  0  0  0  0  0  0  0  0  0  0
   30.2770   37.8270   27.4570 H   0  0  0  0  0  0  0  0  0  0  0  0
   34.4670   34.8980   23.8900 C   0  0  0  0  0  0  0  0  0  0  0  0
   35.2580   34.1050   23.7890 H   0  0  0  0  0  0  0  0  0  0  0  0
   34.7480   35.5650   24.7520 H   0  0  0  0  0  0  0  0  0  0  0  0
   33.1040   34.2330   24.1830 C   0  0  0  0  0  0  0  0  0  0  0  0
   32.3360   35.0300   24.3410 H   0  0  0  0  0  0  0  0  0  0  0  0
   32.8070   33.6000   23.3110 H   0  0  0  0  0  0  0  0  0  0  0  0
   33.2490   33.3680   25.4410 C   0  0  0  0  0  0  0  0  0  0  0  0
   33.5730   34.0280   26.2930 H   0  0  0  0  0  0  0  0  0  0  0  0
   34.1000   32.6460   25.2910 H   0  0  0  0  0  0  0  0  0  0  0  0
   31.8060   32.4730   25.8940 S   0  0  0  0  0  0  0  0  0  0  0  0
   30.6090   33.3420   25.8930 O   0  0  0  0  0  0  0  0  0  0  0  0
   31.9940   31.8540   27.2330 O   0  0  0  0  0  0  0  0  0  0  0  0
   31.6120   31.2310   24.6890 C   0  0  0  0  0  0  0  0  0  0  0  0
   32.5520   30.6370   24.5460 H   0  0  0  0  0  0  0  0  0  0  0  0
   30.8140   30.4940   24.9640 H   0  0  0  0  0  0  0  0  0  0  0  0
   31.3320   31.6430   23.6870 H   0  0  0  0  0  0  0  0  0  0  0  0
  1  3  2  0  0  0  0
  1  7  1  0  0  0  0
  1 21  1  0  0  0  0
  2 12  1  0  0  0  0
  2 17  2  0  0  0  0
  2 18  1  0  0  0  0
  3 13  1  0  0  0  0
  3 14  1  0  0  0  0
  4 16  2  0  0  0  0
  4 19  1  0  0  0  0
  4 20  1  0  0  0  0
  5  6  1  0  0  0  0
  5 10  1  0  0  0  0
  5 11  2  0  0  0  0
  6 12  2  0  0  0  0
  6 22  1  0  0  0  0
  7  8  2  0  0  0  0
  7 27  1  0  0  0  0
  8  9  1  0  0  0  0
  8 23  1  0  0  0  0
  9 13  2  0  0  0  0
  9 24  1  0  0  0  0
 10 18  1  0  0  0  0
 10 19  2  0  0  0  0
 11 16  1  0  0  0  0
 11 25  1  0  0  0  0
 12 15  1  0  0  0  0
 13 15  1  0  0  0  0
 18 43  1  0  0  0  0
 20 26  1  0  0  0  0
 20 30  1  0  0  0  0
 28 29  1  0  0  0  0
 28 33  1  0  0  0  0
 28 34  1  0  0  0  0
 28 35  1  0  0  0  0
 29 30  1  0  0  0  0
 29 36  1  0  0  0  0
 29 37  1  0  0  0  0
 30 31  1  0  0  0  0
 30 38  1  0  0  0  0
 31 32  1  0  0  0  0
 31 39  1  0  0  0  0
 31 40  1  0  0  0  0
 32 33  1  0  0  0  0
 32 41  1  0  0  0  0
 32 42  1  0  0  0  0
 43 44  1  0  0  0  0
 43 45  1  0  0  0  0
 43 46  1  0  0  0  0
 46 47  1  0  0  0  0
 46 48  1  0  0  0  0
 46 49  1  0  0  0  0
 49 50  1  0  0  0  0
 49 51  1  0  0  0  0
 49 52  1  0  0  0  0
 52 53  2  0  0  0  0
 52 54  2  0  0  0  0
 52 55  1  0  0  0  0
 55 56  1  0  0  0  0
 55 57  1  0  0  0  0
 55 58  1  0  0  0  0
M  END
$$$$
