18660-1
 OpenBabel02232411163D
Structure written by MMmdl.
 52 53  0  0  0  0  0  0  0  0999 V2000
   22.0010   14.4690   30.8040 C   0  0  0  0  0  0  0  0  0  0  0  0
   22.5900   13.8470   29.2950 S   0  0  0  0  0  0  0  0  0  0  0  0
   23.4300   14.8550   28.6230 O   0  0  0  0  0  0  0  0  0  0  0  0
   21.4350   13.4380   28.4860 O   0  0  0  0  0  0  0  0  0  0  0  0
   23.6220   12.5020   29.7770 C   0  0  0  0  0  0  0  0  0  0  0  0
   22.9920   11.1350   29.9580 C   0  0  0  0  0  0  0  0  0  0  0  0
   22.0720   11.2530   31.1220 O   0  0  0  0  0  0  0  0  0  0  0  0
   21.4930   10.1060   31.5650 C   0  0  0  0  0  0  0  0  0  0  0  0
   21.9240    8.9290   31.0600 N   0  0  0  0  0  0  0  0  0  0  0  0
   21.2420    7.7770   31.4350 C   0  0  0  0  0  0  0  0  0  0  0  0
   20.1350    7.8080   32.2790 C   0  0  0  0  0  0  0  0  0  0  0  0
   19.6900    9.0500   32.8010 C   0  0  0  0  0  0  0  0  0  0  0  0
   18.5540    9.0920   33.5670 N   0  0  0  0  0  0  0  0  0  0  0  0
   20.4120   10.2480   32.4810 C   0  0  0  0  0  0  0  0  0  0  0  0
   20.0760   11.5260   32.9730 C   0  0  0  0  0  0  0  0  0  0  0  0
   19.8250   12.5940   33.3500 N   0  0  0  0  0  0  0  0  0  0  0  0
   21.7890    6.6240   30.8400 N   0  0  0  0  0  0  0  0  0  0  0  0
   21.1950    5.3380   30.7820 C   0  0  0  0  0  0  0  0  0  0  0  0
   20.1340    5.0840   31.3100 O   0  0  0  0  0  0  0  0  0  0  0  0
   21.9830    4.3550   29.9300 C   0  0  0  0  0  0  0  0  0  0  0  0
   23.3190    4.0140   30.5220 C   0  0  0  0  0  0  0  0  0  0  0  0
   24.4430    4.8400   30.2860 C   0  0  0  0  0  0  0  0  0  0  0  0
   24.1650    5.9190   29.4510 O   0  0  0  0  0  0  0  0  0  0  0  0
   25.1740    6.9580   29.3390 C   0  0  0  0  0  0  0  0  0  0  0  0
   25.6980    4.5510   30.8350 C   0  0  0  0  0  0  0  0  0  0  0  0
   25.8520    3.4200   31.6310 C   0  0  0  0  0  0  0  0  0  0  0  0
   24.7420    2.5820   31.8550 C   0  0  0  0  0  0  0  0  0  0  0  0
   23.4840    2.8660   31.3040 C   0  0  0  0  0  0  0  0  0  0  0  0
   25.0390    1.5080   32.6680 O   0  0  0  0  0  0  0  0  0  0  0  0
   24.0360    0.4700   32.8140 C   0  0  0  0  0  0  0  0  0  0  0  0
   22.8170   14.6530   31.5530 H   0  0  0  0  0  0  0  0  0  0  0  0
   21.2850   13.7560   31.2980 H   0  0  0  0  0  0  0  0  0  0  0  0
   21.4630   15.4460   30.6790 H   0  0  0  0  0  0  0  0  0  0  0  0
   24.4340   12.3470   28.9970 H   0  0  0  0  0  0  0  0  0  0  0  0
   24.1840   12.7630   30.7180 H   0  0  0  0  0  0  0  0  0  0  0  0
   22.3750   10.8180   29.0860 H   0  0  0  0  0  0  0  0  0  0  0  0
   23.7750   10.3780   30.2150 H   0  0  0  0  0  0  0  0  0  0  0  0
   19.5910    6.8940   32.5280 H   0  0  0  0  0  0  0  0  0  0  0  0
   18.1900    9.9760   33.9260 H   0  0  0  0  0  0  0  0  0  0  0  0
   18.0590    8.2210   33.8400 H   0  0  0  0  0  0  0  0  0  0  0  0
   22.6960    6.7720   30.3280 H   0  0  0  0  0  0  0  0  0  0  0  0
   21.3740    3.4230   29.8020 H   0  0  0  0  0  0  0  0  0  0  0  0
   22.1400    4.8200   28.9170 H   0  0  0  0  0  0  0  0  0  0  0  0
   26.0460    6.5660   28.7740 H   0  0  0  0  0  0  0  0  0  0  0  0
   24.6290    7.7390   28.7590 H   0  0  0  0  0  0  0  0  0  0  0  0
   25.4610    7.3350   30.3430 H   0  0  0  0  0  0  0  0  0  0  0  0
   26.5640    5.1900   30.6450 H   0  0  0  0  0  0  0  0  0  0  0  0
   26.8260    3.1840   32.0690 H   0  0  0  0  0  0  0  0  0  0  0  0
   22.6370    2.2020   31.4800 H   0  0  0  0  0  0  0  0  0  0  0  0
   24.5760   -0.2760   33.4460 H   0  0  0  0  0  0  0  0  0  0  0  0
   23.1450    0.8690   33.3440 H   0  0  0  0  0  0  0  0  0  0  0  0
   23.7830    0.0420   31.8200 H   0  0  0  0  0  0  0  0  0  0  0  0
  1  2  1  0  0  0  0
  1 31  1  0  0  0  0
  1 32  1  0  0  0  0
  1 33  1  0  0  0  0
  2  3  2  0  0  0  0
  2  4  2  0  0  0  0
  2  5  1  0  0  0  0
  5  6  1  0  0  0  0
  5 34  1  0  0  0  0
  5 35  1  0  0  0  0
  6  7  1  0  0  0  0
  6 36  1  0  0  0  0
  6 37  1  0  0  0  0
  7  8  1  0  0  0  0
  8 14  2  0  0  0  0
  8  9  1  0  0  0  0
  9 10  2  0  0  0  0
 10 11  1  0  0  0  0
 10 17  1  0  0  0  0
 11 12  2  0  0  0  0
 11 38  1  0  0  0  0
 12 13  1  0  0  0  0
 12 14  1  0  0  0  0
 13 39  1  0  0  0  0
 13 40  1  0  0  0  0
 14 15  1  0  0  0  0
 15 16  3  0  0  0  0
 17 18  1  0  0  0  0
 17 41  1  0  0  0  0
 18 19  2  0  0  0  0
 18 20  1  0  0  0  0
 20 21  1  0  0  0  0
 20 42  1  0  0  0  0
 20 43  1  0  0  0  0
 21 28  2  0  0  0  0
 21 22  1  0  0  0  0
 22 23  1  0  0  0  0
 22 25  2  0  0  0  0
 23 24  1  0  0  0  0
 24 44  1  0  0  0  0
 24 45  1  0  0  0  0
 24 46  1  0  0  0  0
 25 26  1  0  0  0  0
 25 47  1  0  0  0  0
 26 27  2  0  0  0  0
 26 48  1  0  0  0  0
 27 28  1  0  0  0  0
 27 29  1  0  0  0  0
 28 49  1  0  0  0  0
 29 30  1  0  0  0  0
 30 50  1  0  0  0  0
 30 51  1  0  0  0  0
 30 52  1  0  0  0  0
M  END
$$$$
