18628-1
 OpenBabel02232411163D
Structure written by MMmdl.
 41 42  0  0  0  0  0  0  0  0999 V2000
   23.2140   10.8190   29.0920 C   0  0  0  0  0  0  0  0  0  0  0  0
   23.4630   11.0650   30.5650 C   0  0  0  0  0  0  0  0  0  0  0  0
   22.1860   11.1450   31.3050 O   0  0  0  0  0  0  0  0  0  0  0  0
   21.5430   10.0070   31.6480 C   0  0  0  0  0  0  0  0  0  0  0  0
   22.0280    8.8130   31.2380 N   0  0  0  0  0  0  0  0  0  0  0  0
   21.2960    7.6780   31.5530 C   0  0  0  0  0  0  0  0  0  0  0  0
   20.1260    7.7210   32.3020 C   0  0  0  0  0  0  0  0  0  0  0  0
   19.6360    8.9780   32.7510 C   0  0  0  0  0  0  0  0  0  0  0  0
   18.4750    9.0310   33.4800 N   0  0  0  0  0  0  0  0  0  0  0  0
   20.3520   10.1720   32.4160 C   0  0  0  0  0  0  0  0  0  0  0  0
   19.9400   11.4750   32.7690 C   0  0  0  0  0  0  0  0  0  0  0  0
   19.6550   12.5710   33.0180 N   0  0  0  0  0  0  0  0  0  0  0  0
   21.8860    6.5190   30.9960 N   0  0  0  0  0  0  0  0  0  0  0  0
   21.3040    5.2320   30.8800 C   0  0  0  0  0  0  0  0  0  0  0  0
   20.2460    4.9510   31.4000 O   0  0  0  0  0  0  0  0  0  0  0  0
   22.1010    4.2850   29.9940 C   0  0  0  0  0  0  0  0  0  0  0  0
   23.4030    3.8730   30.6270 C   0  0  0  0  0  0  0  0  0  0  0  0
   24.6320    4.5120   30.3670 C   0  0  0  0  0  0  0  0  0  0  0  0
   24.8260    5.6150   29.3740 C   0  0  0  0  0  0  0  0  0  0  0  0
   25.7780    4.0920   31.0720 C   0  0  0  0  0  0  0  0  0  0  0  0
   25.7230    3.0490   31.9920 C   0  0  0  0  0  0  0  0  0  0  0  0
   24.5110    2.3840   32.2110 C   0  0  0  0  0  0  0  0  0  0  0  0
   23.3670    2.7910   31.5270 C   0  0  0  0  0  0  0  0  0  0  0  0
   24.1710   10.9600   28.5290 H   0  0  0  0  0  0  0  0  0  0  0  0
   22.8590    9.7770   28.9090 H   0  0  0  0  0  0  0  0  0  0  0  0
   22.4650   11.5310   28.6810 H   0  0  0  0  0  0  0  0  0  0  0  0
   23.8460   12.0950   30.7610 H   0  0  0  0  0  0  0  0  0  0  0  0
   24.1100   10.2810   31.0210 H   0  0  0  0  0  0  0  0  0  0  0  0
   19.5700    6.8120   32.5380 H   0  0  0  0  0  0  0  0  0  0  0  0
   18.0790    9.9210   33.7840 H   0  0  0  0  0  0  0  0  0  0  0  0
   17.9820    8.1640   33.7660 H   0  0  0  0  0  0  0  0  0  0  0  0
   22.8150    6.6800   30.5620 H   0  0  0  0  0  0  0  0  0  0  0  0
   22.2670    4.7760   29.0030 H   0  0  0  0  0  0  0  0  0  0  0  0
   21.4750    3.3710   29.8100 H   0  0  0  0  0  0  0  0  0  0  0  0
   25.1020    6.5640   29.9060 H   0  0  0  0  0  0  0  0  0  0  0  0
   25.6870    5.3630   28.6990 H   0  0  0  0  0  0  0  0  0  0  0  0
   23.9480    5.8140   28.7290 H   0  0  0  0  0  0  0  0  0  0  0  0
   26.7330    4.5950   30.8900 H   0  0  0  0  0  0  0  0  0  0  0  0
   26.6240    2.7440   32.5320 H   0  0  0  0  0  0  0  0  0  0  0  0
   24.4660    1.5470   32.9140 H   0  0  0  0  0  0  0  0  0  0  0  0
   22.4340    2.2490   31.6950 H   0  0  0  0  0  0  0  0  0  0  0  0
  1  2  1  0  0  0  0
  1 24  1  0  0  0  0
  1 25  1  0  0  0  0
  1 26  1  0  0  0  0
  2  3  1  0  0  0  0
  2 27  1  0  0  0  0
  2 28  1  0  0  0  0
  3  4  1  0  0  0  0
  4 10  2  0  0  0  0
  4  5  1  0  0  0  0
  5  6  2  0  0  0  0
  6  7  1  0  0  0  0
  6 13  1  0  0  0  0
  7  8  2  0  0  0  0
  7 29  1  0  0  0  0
  8  9  1  0  0  0  0
  8 10  1  0  0  0  0
  9 30  1  0  0  0  0
  9 31  1  0  0  0  0
 10 11  1  0  0  0  0
 11 12  3  0  0  0  0
 13 14  1  0  0  0  0
 13 32  1  0  0  0  0
 14 15  2  0  0  0  0
 14 16  1  0  0  0  0
 16 17  1  0  0  0  0
 16 33  1  0  0  0  0
 16 34  1  0  0  0  0
 17 23  2  0  0  0  0
 17 18  1  0  0  0  0
 18 19  1  0  0  0  0
 18 20  2  0  0  0  0
 19 35  1  0  0  0  0
 19 36  1  0  0  0  0
 19 37  1  0  0  0  0
 20 21  1  0  0  0  0
 20 38  1  0  0  0  0
 21 22  2  0  0  0  0
 21 39  1  0  0  0  0
 22 23  1  0  0  0  0
 22 40  1  0  0  0  0
 23 41  1  0  0  0  0
M  END
$$$$
