p38a_2o
 OpenBabel02232411163D
Structure written by MMmdl.
 55 58  0  0  0  0  0  0  0  0999 V2000
   38.2330   36.4920   17.2200 C   0  0  0  0  0  0  0  0  0  0  0  0
   34.5630   35.1590   21.3770 C   0  0  0  0  0  0  0  0  0  0  0  0
   37.4580   36.0640   18.2940 C   0  0  0  0  0  0  0  0  0  0  0  0
   34.0080   39.3050   23.8090 C   0  0  0  0  0  0  0  0  0  0  0  0
   34.5930   38.0240   21.4390 C   0  0  0  0  0  0  0  0  0  0  0  0
   34.9770   37.3450   20.2330 C   0  0  0  0  0  0  0  0  0  0  0  0
   37.5740   36.6310   15.9910 C   0  0  0  0  0  0  0  0  0  0  0  0
   36.2210   36.3370   15.8050 C   0  0  0  0  0  0  0  0  0  0  0  0
   35.4660   35.8980   16.8990 C   0  0  0  0  0  0  0  0  0  0  0  0
   34.2600   37.2930   22.6160 C   0  0  0  0  0  0  0  0  0  0  0  0
   34.5490   39.4440   21.5240 C   0  0  0  0  0  0  0  0  0  0  0  0
   34.9950   35.9930   20.2300 C   0  0  0  0  0  0  0  0  0  0  0  0
   36.0900   35.7540   18.1410 C   0  0  0  0  0  0  0  0  0  0  0  0
   38.0060   35.9440   19.4960 F   0  0  0  0  0  0  0  0  0  0  0  0
   35.3760   35.1510   19.1860 O   0  0  0  0  0  0  0  0  0  0  0  0
   34.2710   40.0900   22.6600 N   0  0  0  0  0  0  0  0  0  0  0  0
   34.4820   33.9480   21.3640 O   0  0  0  0  0  0  0  0  0  0  0  0
   34.2470   35.8830   22.5830 N   0  0  0  0  0  0  0  0  0  0  0  0
   33.9630   37.9250   23.8010 N   0  0  0  0  0  0  0  0  0  0  0  0
   33.8380   40.0280   24.9620 N   0  0  0  0  0  0  0  0  0  0  0  0
   39.2920   36.7430   17.3370 H   0  0  0  0  0  0  0  0  0  0  0  0
   35.2550   37.9460   19.3630 H   0  0  0  0  0  0  0  0  0  0  0  0
   35.7410   36.4590   14.8310 H   0  0  0  0  0  0  0  0  0  0  0  0
   34.3990   35.6860   16.7770 H   0  0  0  0  0  0  0  0  0  0  0  0
   34.7420   40.0540   20.6260 H   0  0  0  0  0  0  0  0  0  0  0  0
   33.8380   41.0670   24.8890 H   0  0  0  0  0  0  0  0  0  0  0  0
   38.2660   37.1040   14.9570 F   0  0  0  0  0  0  0  0  0  0  0  0
   33.7750   38.1570   28.3250 C   0  0  0  0  0  0  0  0  0  0  0  0
   34.3140   38.5330   26.9370 C   0  0  0  0  0  0  0  0  0  0  0  0
   33.3580   39.5520   26.2940 C   0  0  0  0  0  0  0  0  0  0  0  0
   31.9220   38.9930   26.2410 C   0  0  0  0  0  0  0  0  0  0  0  0
   31.4940   38.5810   27.6570 C   0  0  0  0  0  0  0  0  0  0  0  0
   32.4240   37.6480   28.2520 O   0  0  0  0  0  0  0  0  0  0  0  0
   33.7960   39.0370   29.0100 H   0  0  0  0  0  0  0  0  0  0  0  0
   34.3340   37.2940   28.7540 H   0  0  0  0  0  0  0  0  0  0  0  0
   34.3920   37.6220   26.2970 H   0  0  0  0  0  0  0  0  0  0  0  0
   35.3330   38.9800   27.0380 H   0  0  0  0  0  0  0  0  0  0  0  0
   33.3550   40.4940   26.9260 H   0  0  0  0  0  0  0  0  0  0  0  0
   31.2260   39.7720   25.8480 H   0  0  0  0  0  0  0  0  0  0  0  0
   31.8800   38.1130   25.5570 H   0  0  0  0  0  0  0  0  0  0  0  0
   31.4110   39.4720   28.3190 H   0  0  0  0  0  0  0  0  0  0  0  0
   30.5440   37.9980   27.6360 H   0  0  0  0  0  0  0  0  0  0  0  0
   33.8950   35.0810   23.8100 C   0  0  0  0  0  0  0  0  0  0  0  0
   34.4460   34.1020   23.7220 H   0  0  0  0  0  0  0  0  0  0  0  0
   34.2670   35.6440   24.7120 H   0  0  0  0  0  0  0  0  0  0  0  0
   32.3870   34.8450   23.9130 C   0  0  0  0  0  0  0  0  0  0  0  0
   31.8810   35.8210   24.1560 H   0  0  0  0  0  0  0  0  0  0  0  0
   31.9800   34.5440   22.9080 H   0  0  0  0  0  0  0  0  0  0  0  0
   31.9240   33.6200   25.1090 S   0  0  0  0  0  0  0  0  0  0  0  0
   30.5190   33.8170   25.5140 O   0  0  0  0  0  0  0  0  0  0  0  0
   32.8330   33.6550   26.2740 O   0  0  0  0  0  0  0  0  0  0  0  0
   32.0820   32.1050   24.2740 C   0  0  0  0  0  0  0  0  0  0  0  0
   33.1470   31.8080   24.1100 H   0  0  0  0  0  0  0  0  0  0  0  0
   31.6110   31.2600   24.8450 H   0  0  0  0  0  0  0  0  0  0  0  0
   31.5780   32.1120   23.2720 H   0  0  0  0  0  0  0  0  0  0  0  0
  1  3  2  0  0  0  0
  1  7  1  0  0  0  0
  1 21  1  0  0  0  0
  2 12  1  0  0  0  0
  2 17  2  0  0  0  0
  2 18  1  0  0  0  0
  3 13  1  0  0  0  0
  3 14  1  0  0  0  0
  4 16  2  0  0  0  0
  4 19  1  0  0  0  0
  4 20  1  0  0  0  0
  5  6  1  0  0  0  0
  5 10  1  0  0  0  0
  5 11  2  0  0  0  0
  6 12  2  0  0  0  0
  6 22  1  0  0  0  0
  7  8  2  0  0  0  0
  7 27  1  0  0  0  0
  8  9  1  0  0  0  0
  8 23  1  0  0  0  0
  9 13  2  0  0  0  0
  9 24  1  0  0  0  0
 10 18  1  0  0  0  0
 10 19  2  0  0  0  0
 11 16  1  0  0  0  0
 11 25  1  0  0  0  0
 12 15  1  0  0  0  0
 13 15  1  0  0  0  0
 18 43  1  0  0  0  0
 20 26  1  0  0  0  0
 20 30  1  0  0  0  0
 28 29  1  0  0  0  0
 28 33  1  0  0  0  0
 28 34  1  0  0  0  0
 28 35  1  0  0  0  0
 29 30  1  0  0  0  0
 29 36  1  0  0  0  0
 29 37  1  0  0  0  0
 30 31  1  0  0  0  0
 30 38  1  0  0  0  0
 31 32  1  0  0  0  0
 31 39  1  0  0  0  0
 31 40  1  0  0  0  0
 32 33  1  0  0  0  0
 32 41  1  0  0  0  0
 32 42  1  0  0  0  0
 43 44  1  0  0  0  0
 43 45  1  0  0  0  0
 43 46  1  0  0  0  0
 46 47  1  0  0  0  0
 46 48  1  0  0  0  0
 46 49  1  0  0  0  0
 49 50  2  0  0  0  0
 49 51  2  0  0  0  0
 49 52  1  0  0  0  0
 52 53  1  0  0  0  0
 52 54  1  0  0  0  0
 52 55  1  0  0  0  0
M  END
$$$$
