18630-1
 OpenBabel02232411163D
Structure written by MMmdl.
 41 42  0  0  0  0  0  0  0  0999 V2000
   23.8430   12.6530   30.3560 C   0  0  0  0  0  0  0  0  0  0  0  0
   23.4080   11.2030   30.4500 C   0  0  0  0  0  0  0  0  0  0  0  0
   22.1620   11.2790   31.2580 O   0  0  0  0  0  0  0  0  0  0  0  0
   21.5350   10.1320   31.5890 C   0  0  0  0  0  0  0  0  0  0  0  0
   22.0180    8.9500   31.1370 N   0  0  0  0  0  0  0  0  0  0  0  0
   21.2980    7.8040   31.4470 C   0  0  0  0  0  0  0  0  0  0  0  0
   20.1480    7.8270   32.2290 C   0  0  0  0  0  0  0  0  0  0  0  0
   19.6540    9.0710   32.7080 C   0  0  0  0  0  0  0  0  0  0  0  0
   18.5100    9.1040   33.4630 N   0  0  0  0  0  0  0  0  0  0  0  0
   20.3530   10.2750   32.3750 C   0  0  0  0  0  0  0  0  0  0  0  0
   19.9250   11.5700   32.7370 C   0  0  0  0  0  0  0  0  0  0  0  0
   19.6200   12.6600   32.9910 N   0  0  0  0  0  0  0  0  0  0  0  0
   21.8690    6.6530   30.8550 N   0  0  0  0  0  0  0  0  0  0  0  0
   21.3190    5.3450   30.8180 C   0  0  0  0  0  0  0  0  0  0  0  0
   20.2840    5.0580   31.3810 O   0  0  0  0  0  0  0  0  0  0  0  0
   22.1210    4.3810   29.9580 C   0  0  0  0  0  0  0  0  0  0  0  0
   23.4300    3.9990   30.5950 C   0  0  0  0  0  0  0  0  0  0  0  0
   23.5070    2.8850   31.4460 C   0  0  0  0  0  0  0  0  0  0  0  0
   24.7140    2.5460   32.0560 C   0  0  0  0  0  0  0  0  0  0  0  0
   25.8750    3.3030   31.8180 C   0  0  0  0  0  0  0  0  0  0  0  0
   27.1640    2.9260   32.4700 C   0  0  0  0  0  0  0  0  0  0  0  0
   25.8000    4.4000   30.9460 C   0  0  0  0  0  0  0  0  0  0  0  0
   24.5910    4.7420   30.3370 C   0  0  0  0  0  0  0  0  0  0  0  0
   24.0980   13.0680   31.3570 H   0  0  0  0  0  0  0  0  0  0  0  0
   23.0430   13.2830   29.8990 H   0  0  0  0  0  0  0  0  0  0  0  0
   24.7480   12.7130   29.7010 H   0  0  0  0  0  0  0  0  0  0  0  0
   23.1390   10.7740   29.4590 H   0  0  0  0  0  0  0  0  0  0  0  0
   24.1400   10.5710   30.9990 H   0  0  0  0  0  0  0  0  0  0  0  0
   19.6060    6.9090   32.4660 H   0  0  0  0  0  0  0  0  0  0  0  0
   18.0130    8.2310   33.7270 H   0  0  0  0  0  0  0  0  0  0  0  0
   18.1080    9.9870   33.7800 H   0  0  0  0  0  0  0  0  0  0  0  0
   22.7640    6.8200   30.3530 H   0  0  0  0  0  0  0  0  0  0  0  0
   21.5040    3.4600   29.7870 H   0  0  0  0  0  0  0  0  0  0  0  0
   22.3090    4.8570   28.9590 H   0  0  0  0  0  0  0  0  0  0  0  0
   22.6260    2.2660   31.6330 H   0  0  0  0  0  0  0  0  0  0  0  0
   24.7590    1.6770   32.7200 H   0  0  0  0  0  0  0  0  0  0  0  0
   27.5430    1.9620   32.0440 H   0  0  0  0  0  0  0  0  0  0  0  0
   27.9520    3.7020   32.3140 H   0  0  0  0  0  0  0  0  0  0  0  0
   27.0290    2.7870   33.5710 H   0  0  0  0  0  0  0  0  0  0  0  0
   26.6940    4.9930   30.7320 H   0  0  0  0  0  0  0  0  0  0  0  0
   24.5740    5.5930   29.6510 H   0  0  0  0  0  0  0  0  0  0  0  0
  1  2  1  0  0  0  0
  1 24  1  0  0  0  0
  1 25  1  0  0  0  0
  1 26  1  0  0  0  0
  2  3  1  0  0  0  0
  2 27  1  0  0  0  0
  2 28  1  0  0  0  0
  3  4  1  0  0  0  0
  4 10  2  0  0  0  0
  4  5  1  0  0  0  0
  5  6  2  0  0  0  0
  6  7  1  0  0  0  0
  6 13  1  0  0  0  0
  7  8  2  0  0  0  0
  7 29  1  0  0  0  0
  8  9  1  0  0  0  0
  8 10  1  0  0  0  0
  9 30  1  0  0  0  0
  9 31  1  0  0  0  0
 10 11  1  0  0  0  0
 11 12  3  0  0  0  0
 13 14  1  0  0  0  0
 13 32  1  0  0  0  0
 14 15  2  0  0  0  0
 14 16  1  0  0  0  0
 16 17  1  0  0  0  0
 16 33  1  0  0  0  0
 16 34  1  0  0  0  0
 17 23  2  0  0  0  0
 17 18  1  0  0  0  0
 18 19  2  0  0  0  0
 18 35  1  0  0  0  0
 19 20  1  0  0  0  0
 19 36  1  0  0  0  0
 20 21  1  0  0  0  0
 20 22  2  0  0  0  0
 21 37  1  0  0  0  0
 21 38  1  0  0  0  0
 21 39  1  0  0  0  0
 22 23  1  0  0  0  0
 22 40  1  0  0  0  0
 23 41  1  0  0  0  0
M  END
$$$$
