18638-1
 OpenBabel02232411163D
Structure written by MMmdl.
 52 53  0  0  0  0  0  0  0  0999 V2000
   24.0100   12.4580   30.3250 C   0  0  0  0  0  0  0  0  0  0  0  0
   23.5460   11.0190   30.4390 C   0  0  0  0  0  0  0  0  0  0  0  0
   22.2910   11.1340   31.2260 O   0  0  0  0  0  0  0  0  0  0  0  0
   21.6500   10.0030   31.5880 C   0  0  0  0  0  0  0  0  0  0  0  0
   22.1230    8.8040   31.1660 N   0  0  0  0  0  0  0  0  0  0  0  0
   21.3880    7.6790   31.5030 C   0  0  0  0  0  0  0  0  0  0  0  0
   20.2310    7.7390   32.2750 C   0  0  0  0  0  0  0  0  0  0  0  0
   19.7470    8.9980   32.7190 C   0  0  0  0  0  0  0  0  0  0  0  0
   18.5880    9.0570   33.4530 N   0  0  0  0  0  0  0  0  0  0  0  0
   20.4710   10.1830   32.3710 C   0  0  0  0  0  0  0  0  0  0  0  0
   20.0700   11.4890   32.7260 C   0  0  0  0  0  0  0  0  0  0  0  0
   19.7860   12.5840   32.9820 N   0  0  0  0  0  0  0  0  0  0  0  0
   21.9320    6.4890   30.9570 N   0  0  0  0  0  0  0  0  0  0  0  0
   21.2550    5.2530   30.8720 C   0  0  0  0  0  0  0  0  0  0  0  0
   20.1780    5.0560   31.3960 O   0  0  0  0  0  0  0  0  0  0  0  0
   21.9410    4.2240   29.9890 C   0  0  0  0  0  0  0  0  0  0  0  0
   23.3010    3.7780   30.4380 C   0  0  0  0  0  0  0  0  0  0  0  0
   24.4650    4.4730   29.9980 C   0  0  0  0  0  0  0  0  0  0  0  0
   24.1640    5.6070   29.2510 O   0  0  0  0  0  0  0  0  0  0  0  0
   25.2160    6.5960   29.0910 C   0  0  0  0  0  0  0  0  0  0  0  0
   25.7440    3.9860   30.2510 C   0  0  0  0  0  0  0  0  0  0  0  0
   25.9200    2.8140   31.0080 C   0  0  0  0  0  0  0  0  0  0  0  0
   27.5500    2.1830   31.1770 S   0  0  0  0  0  0  0  0  0  0  0  0
   28.5400    3.2760   31.0090 O   0  0  0  0  0  0  0  0  0  0  0  0
   27.6990    1.5430   32.5040 O   0  0  0  0  0  0  0  0  0  0  0  0
   27.6830    1.0270   29.8910 C   0  0  0  0  0  0  0  0  0  0  0  0
   24.7780    2.1780   31.5170 C   0  0  0  0  0  0  0  0  0  0  0  0
   23.4740    2.6400   31.2100 C   0  0  0  0  0  0  0  0  0  0  0  0
   25.0220    1.1140   32.3510 O   0  0  0  0  0  0  0  0  0  0  0  0
   23.9320    0.1840   32.6100 C   0  0  0  0  0  0  0  0  0  0  0  0
   24.9250   12.4880   29.6810 H   0  0  0  0  0  0  0  0  0  0  0  0
   23.2290   13.0940   29.8460 H   0  0  0  0  0  0  0  0  0  0  0  0
   24.2600   12.8860   31.3210 H   0  0  0  0  0  0  0  0  0  0  0  0
   23.2820   10.5760   29.4520 H   0  0  0  0  0  0  0  0  0  0  0  0
   24.2590   10.3820   31.0080 H   0  0  0  0  0  0  0  0  0  0  0  0
   19.6720    6.8340   32.5280 H   0  0  0  0  0  0  0  0  0  0  0  0
   18.0820    8.1930   33.7240 H   0  0  0  0  0  0  0  0  0  0  0  0
   18.1930    9.9490   33.7510 H   0  0  0  0  0  0  0  0  0  0  0  0
   22.8450    6.5850   30.4550 H   0  0  0  0  0  0  0  0  0  0  0  0
   21.2740    3.3240   29.9150 H   0  0  0  0  0  0  0  0  0  0  0  0
   22.0340    4.6810   28.9620 H   0  0  0  0  0  0  0  0  0  0  0  0
   24.6430    7.4700   28.7020 H   0  0  0  0  0  0  0  0  0  0  0  0
   25.6890    6.8280   30.0690 H   0  0  0  0  0  0  0  0  0  0  0  0
   25.9520    6.2260   28.3450 H   0  0  0  0  0  0  0  0  0  0  0  0
   26.6130    4.5110   29.8360 H   0  0  0  0  0  0  0  0  0  0  0  0
   27.5930    1.5110   28.8810 H   0  0  0  0  0  0  0  0  0  0  0  0
   28.6640    0.4850   29.8940 H   0  0  0  0  0  0  0  0  0  0  0  0
   26.8820    0.2440   29.9310 H   0  0  0  0  0  0  0  0  0  0  0  0
   22.6020    2.0880   31.5660 H   0  0  0  0  0  0  0  0  0  0  0  0
   23.5530   -0.2230   31.6490 H   0  0  0  0  0  0  0  0  0  0  0  0
   23.1370    0.6720   33.2130 H   0  0  0  0  0  0  0  0  0  0  0  0
   24.4510   -0.6090   33.2010 H   0  0  0  0  0  0  0  0  0  0  0  0
  1  2  1  0  0  0  0
  1 31  1  0  0  0  0
  1 32  1  0  0  0  0
  1 33  1  0  0  0  0
  2  3  1  0  0  0  0
  2 34  1  0  0  0  0
  2 35  1  0  0  0  0
  3  4  1  0  0  0  0
  4 10  2  0  0  0  0
  4  5  1  0  0  0  0
  5  6  2  0  0  0  0
  6  7  1  0  0  0  0
  6 13  1  0  0  0  0
  7  8  2  0  0  0  0
  7 36  1  0  0  0  0
  8  9  1  0  0  0  0
  8 10  1  0  0  0  0
  9 37  1  0  0  0  0
  9 38  1  0  0  0  0
 10 11  1  0  0  0  0
 11 12  3  0  0  0  0
 13 14  1  0  0  0  0
 13 39  1  0  0  0  0
 14 15  2  0  0  0  0
 14 16  1  0  0  0  0
 16 17  1  0  0  0  0
 16 40  1  0  0  0  0
 16 41  1  0  0  0  0
 17 28  2  0  0  0  0
 17 18  1  0  0  0  0
 18 19  1  0  0  0  0
 18 21  2  0  0  0  0
 19 20  1  0  0  0  0
 20 42  1  0  0  0  0
 20 43  1  0  0  0  0
 20 44  1  0  0  0  0
 21 22  1  0  0  0  0
 21 45  1  0  0  0  0
 22 23  1  0  0  0  0
 22 27  2  0  0  0  0
 23 24  2  0  0  0  0
 23 25  2  0  0  0  0
 23 26  1  0  0  0  0
 26 46  1  0  0  0  0
 26 47  1  0  0  0  0
 26 48  1  0  0  0  0
 27 28  1  0  0  0  0
 27 29  1  0  0  0  0
 28 49  1  0  0  0  0
 29 30  1  0  0  0  0
 30 50  1  0  0  0  0
 30 51  1  0  0  0  0
 30 52  1  0  0  0  0
M  END
$$$$
