21
 OpenBabel02232411153D
Structure written by MMmdl.
 49 52  0  0  0  0  0  0  0  0999 V2000
    2.0100   28.8270    6.7090 C   0  0  0  0  0  0  0  0  0  0  0  0
   -1.4520   31.4520    7.8870 C   0  0  0  0  0  0  0  0  0  0  0  0
    0.0910   26.0360    8.9770 C   0  0  0  0  0  0  0  0  0  0  0  0
   -0.7860   25.3370   10.0230 C   0  0  0  0  0  0  0  0  0  0  0  0
   -0.6860   23.8110    9.8000 C   0  0  0  0  0  0  0  0  0  0  0  0
   -1.4760   23.0460   10.8710 C   0  0  0  0  0  0  0  0  0  0  0  0
   -1.0220   23.4300   12.2890 C   0  0  0  0  0  0  0  0  0  0  0  0
   -1.1260   24.9460   12.5150 C   0  0  0  0  0  0  0  0  0  0  0  0
   -0.3430   25.7230   11.4470 C   0  0  0  0  0  0  0  0  0  0  0  0
    5.7040   25.8140    5.3580 C   0  0  0  0  0  0  0  0  0  0  0  0
    5.5190   24.8790    6.3740 C   0  0  0  0  0  0  0  0  0  0  0  0
    4.5290   25.1420    7.3390 C   0  0  0  0  0  0  0  0  0  0  0  0
    3.7580   26.3110    7.3360 C   0  0  0  0  0  0  0  0  0  0  0  0
    1.3110   27.8940    7.4710 N   0  0  0  0  0  0  0  0  0  0  0  0
    0.1150   28.2340    8.0150 C   0  0  0  0  0  0  0  0  0  0  0  0
   -0.5610   27.3520    8.7680 O   0  0  0  0  0  0  0  0  0  0  0  0
   -0.4190   29.5330    7.8170 C   0  0  0  0  0  0  0  0  0  0  0  0
   -1.5630   30.1850    8.2930 N   0  0  0  0  0  0  0  0  0  0  0  0
   -0.2410   31.6820    7.1420 N   0  0  0  0  0  0  0  0  0  0  0  0
    0.4140   30.4560    7.0640 C   0  0  0  0  0  0  0  0  0  0  0  0
    1.6050   30.1330    6.4650 N   0  0  0  0  0  0  0  0  0  0  0  0
    3.2080   28.4350    6.1240 N   0  0  0  0  0  0  0  0  0  0  0  0
    3.9400   27.2150    6.2810 C   0  0  0  0  0  0  0  0  0  0  0  0
    4.9230   26.9680    5.2970 C   0  0  0  0  0  0  0  0  0  0  0  0
   -2.1490   32.2610    8.0830 H   0  0  0  0  0  0  0  0  0  0  0  0
    1.1210   26.2150    9.3550 H   0  0  0  0  0  0  0  0  0  0  0  0
    0.0820   25.5220    7.9960 H   0  0  0  0  0  0  0  0  0  0  0  0
   -1.8490   25.6550    9.8910 H   0  0  0  0  0  0  0  0  0  0  0  0
   -1.0910   23.5530    8.7960 H   0  0  0  0  0  0  0  0  0  0  0  0
    0.3830   23.4960    9.8580 H   0  0  0  0  0  0  0  0  0  0  0  0
   -2.5550   23.2860   10.7640 H   0  0  0  0  0  0  0  0  0  0  0  0
   -1.3300   21.9500   10.7310 H   0  0  0  0  0  0  0  0  0  0  0  0
   -1.6570   22.9000   13.0350 H   0  0  0  0  0  0  0  0  0  0  0  0
    0.0370   23.1100   12.4330 H   0  0  0  0  0  0  0  0  0  0  0  0
   -2.1970   25.2510   12.5010 H   0  0  0  0  0  0  0  0  0  0  0  0
   -0.7050   25.1940   13.5170 H   0  0  0  0  0  0  0  0  0  0  0  0
    0.7440   25.4960   11.5750 H   0  0  0  0  0  0  0  0  0  0  0  0
   -0.4980   26.8150   11.6020 H   0  0  0  0  0  0  0  0  0  0  0  0
    6.4660   25.6410    4.5910 H   0  0  0  0  0  0  0  0  0  0  0  0
    6.1140   23.9680    6.4070 H   0  0  0  0  0  0  0  0  0  0  0  0
    3.0280   26.5010    8.1210 H   0  0  0  0  0  0  0  0  0  0  0  0
    0.0160   32.5680    6.6840 H   0  0  0  0  0  0  0  0  0  0  0  0
    3.6880   29.1400    5.5040 H   0  0  0  0  0  0  0  0  0  0  0  0
    5.0870   27.6710    4.4830 H   0  0  0  0  0  0  0  0  0  0  0  0
    4.4270   24.1360    8.2700 O   0  0  0  0  0  0  0  0  0  0  0  0
    3.2790   24.1400    9.1530 C   0  0  0  0  0  0  0  0  0  0  0  0
    3.4500   23.2130    9.7490 H   0  0  0  0  0  0  0  0  0  0  0  0
    3.3050   25.0280    9.8180 H   0  0  0  0  0  0  0  0  0  0  0  0
    2.3490   24.0760    8.5590 H   0  0  0  0  0  0  0  0  0  0  0  0
  1 14  2  0  0  0  0
  1 21  1  0  0  0  0
  1 22  1  0  0  0  0
  2 18  2  0  0  0  0
  2 19  1  0  0  0  0
  2 25  1  0  0  0  0
  3  4  1  0  0  0  0
  3 16  1  0  0  0  0
  3 26  1  0  0  0  0
  3 27  1  0  0  0  0
  4  5  1  0  0  0  0
  4  9  1  0  0  0  0
  4 28  1  0  0  0  0
  5  6  1  0  0  0  0
  5 29  1  0  0  0  0
  5 30  1  0  0  0  0
  6  7  1  0  0  0  0
  6 31  1  0  0  0  0
  6 32  1  0  0  0  0
  7  8  1  0  0  0  0
  7 33  1  0  0  0  0
  7 34  1  0  0  0  0
  8  9  1  0  0  0  0
  8 35  1  0  0  0  0
  8 36  1  0  0  0  0
  9 37  1  0  0  0  0
  9 38  1  0  0  0  0
 10 11  2  0  0  0  0
 10 24  1  0  0  0  0
 10 39  1  0  0  0  0
 11 12  1  0  0  0  0
 11 40  1  0  0  0  0
 12 13  2  0  0  0  0
 12 45  1  0  0  0  0
 13 23  1  0  0  0  0
 13 41  1  0  0  0  0
 14 15  1  0  0  0  0
 15 16  1  0  0  0  0
 15 17  2  0  0  0  0
 17 18  1  0  0  0  0
 17 20  1  0  0  0  0
 19 20  1  0  0  0  0
 19 42  1  0  0  0  0
 20 21  2  0  0  0  0
 22 23  1  0  0  0  0
 22 43  1  0  0  0  0
 23 24  2  0  0  0  0
 24 44  1  0  0  0  0
 45 46  1  0  0  0  0
 46 47  1  0  0  0  0
 46 48  1  0  0  0  0
 46 49  1  0  0  0  0
M  END
$$$$
