p38a_2r
 OpenBabel02232411163D
Structure written by MMmdl.
 56 59  0  0  0  0  0  0  0  0999 V2000
   36.3050   35.6990   16.2400 C   0  0  0  0  0  0  0  0  0  0  0  0
   33.9700   35.1310   21.7200 C   0  0  0  0  0  0  0  0  0  0  0  0
   35.4280   35.3810   17.2720 C   0  0  0  0  0  0  0  0  0  0  0  0
   33.8910   39.2690   24.2320 C   0  0  0  0  0  0  0  0  0  0  0  0
   34.4400   37.9640   21.8690 C   0  0  0  0  0  0  0  0  0  0  0  0
   34.7870   37.2580   20.6700 C   0  0  0  0  0  0  0  0  0  0  0  0
   37.5740   36.1580   16.6180 C   0  0  0  0  0  0  0  0  0  0  0  0
   37.9910   36.2620   17.9470 C   0  0  0  0  0  0  0  0  0  0  0  0
   37.0870   35.9430   18.9670 C   0  0  0  0  0  0  0  0  0  0  0  0
   33.9230   37.2620   23.0010 C   0  0  0  0  0  0  0  0  0  0  0  0
   34.6000   39.3720   21.9990 C   0  0  0  0  0  0  0  0  0  0  0  0
   34.5880   35.9200   20.6230 C   0  0  0  0  0  0  0  0  0  0  0  0
   35.8020   35.5110   18.6270 C   0  0  0  0  0  0  0  0  0  0  0  0
   34.2110   34.9240   17.0020 F   0  0  0  0  0  0  0  0  0  0  0  0
   34.8380   35.0730   19.5400 O   0  0  0  0  0  0  0  0  0  0  0  0
   34.3470   40.0350   23.1340 N   0  0  0  0  0  0  0  0  0  0  0  0
   33.6770   33.9560   21.6520 O   0  0  0  0  0  0  0  0  0  0  0  0
   33.6940   35.8740   22.9250 N   0  0  0  0  0  0  0  0  0  0  0  0
   33.6140   37.9170   24.1630 N   0  0  0  0  0  0  0  0  0  0  0  0
   33.6930   39.9250   25.4190 N   0  0  0  0  0  0  0  0  0  0  0  0
   36.0140   35.6290   15.1880 H   0  0  0  0  0  0  0  0  0  0  0  0
   35.2130   37.8270   19.8380 H   0  0  0  0  0  0  0  0  0  0  0  0
   38.9970   36.6170   18.1860 H   0  0  0  0  0  0  0  0  0  0  0  0
   37.3850   36.0530   20.0110 H   0  0  0  0  0  0  0  0  0  0  0  0
   34.9520   39.9610   21.1340 H   0  0  0  0  0  0  0  0  0  0  0  0
   33.8860   40.9450   25.4780 H   0  0  0  0  0  0  0  0  0  0  0  0
   38.4170   36.5360   15.6590 F   0  0  0  0  0  0  0  0  0  0  0  0
   32.8770   39.6590   29.1450 C   0  0  0  0  0  0  0  0  0  0  0  0
   33.0920   40.3050   27.7710 C   0  0  0  0  0  0  0  0  0  0  0  0
   33.3640   39.2250   26.7030 C   0  0  0  0  0  0  0  0  0  0  0  0
   34.5090   38.2980   27.1580 C   0  0  0  0  0  0  0  0  0  0  0  0
   34.2220   37.7480   28.5570 C   0  0  0  0  0  0  0  0  0  0  0  0
   33.9840   38.8090   29.5140 O   0  0  0  0  0  0  0  0  0  0  0  0
   31.9370   39.0590   29.1590 H   0  0  0  0  0  0  0  0  0  0  0  0
   32.8790   40.4280   29.9530 H   0  0  0  0  0  0  0  0  0  0  0  0
   33.9510   41.0190   27.8260 H   0  0  0  0  0  0  0  0  0  0  0  0
   32.1850   40.8900   27.4940 H   0  0  0  0  0  0  0  0  0  0  0  0
   32.4310   38.6170   26.5340 H   0  0  0  0  0  0  0  0  0  0  0  0
   34.5920   37.4190   26.4550 H   0  0  0  0  0  0  0  0  0  0  0  0
   35.4750   38.8490   27.1500 H   0  0  0  0  0  0  0  0  0  0  0  0
   33.3380   37.0700   28.5470 H   0  0  0  0  0  0  0  0  0  0  0  0
   35.1180   37.2420   28.9840 H   0  0  0  0  0  0  0  0  0  0  0  0
   33.2060   35.1280   24.1240 C   0  0  0  0  0  0  0  0  0  0  0  0
   32.6310   35.8320   24.7940 H   0  0  0  0  0  0  0  0  0  0  0  0
   32.5050   34.3210   23.7700 H   0  0  0  0  0  0  0  0  0  0  0  0
   34.3260   34.4670   24.9840 C   0  0  0  0  0  0  0  0  0  0  0  0
   34.9430   35.5700   25.6930 O   0  0  0  0  0  0  0  0  0  0  0  0
   35.5630   35.2110   26.3900 H   0  0  0  0  0  0  0  0  0  0  0  0
   35.4170   33.7720   24.1670 C   0  0  0  0  0  0  0  0  0  0  0  0
   35.9830   34.5360   23.6000 H   0  0  0  0  0  0  0  0  0  0  0  0
   36.1260   33.2550   24.8500 H   0  0  0  0  0  0  0  0  0  0  0  0
   34.9730   33.0280   23.4760 H   0  0  0  0  0  0  0  0  0  0  0  0
   33.6830   33.5130   26.0030 C   0  0  0  0  0  0  0  0  0  0  0  0
   34.4360   33.2000   26.7620 H   0  0  0  0  0  0  0  0  0  0  0  0
   32.8440   34.0100   26.5430 H   0  0  0  0  0  0  0  0  0  0  0  0
   33.2920   32.5970   25.5050 H   0  0  0  0  0  0  0  0  0  0  0  0
  1  3  2  0  0  0  0
  1  7  1  0  0  0  0
  1 21  1  0  0  0  0
  2 12  1  0  0  0  0
  2 17  2  0  0  0  0
  2 18  1  0  0  0  0
  3 13  1  0  0  0  0
  3 14  1  0  0  0  0
  4 16  2  0  0  0  0
  4 19  1  0  0  0  0
  4 20  1  0  0  0  0
  5  6  1  0  0  0  0
  5 10  1  0  0  0  0
  5 11  2  0  0  0  0
  6 12  2  0  0  0  0
  6 22  1  0  0  0  0
  7  8  2  0  0  0  0
  7 27  1  0  0  0  0
  8  9  1  0  0  0  0
  8 23  1  0  0  0  0
  9 13  2  0  0  0  0
  9 24  1  0  0  0  0
 10 18  1  0  0  0  0
 10 19  2  0  0  0  0
 11 16  1  0  0  0  0
 11 25  1  0  0  0  0
 12 15  1  0  0  0  0
 13 15  1  0  0  0  0
 18 43  1  0  0  0  0
 20 26  1  0  0  0  0
 20 30  1  0  0  0  0
 28 29  1  0  0  0  0
 28 33  1  0  0  0  0
 28 34  1  0  0  0  0
 28 35  1  0  0  0  0
 29 30  1  0  0  0  0
 29 36  1  0  0  0  0
 29 37  1  0  0  0  0
 30 31  1  0  0  0  0
 30 38  1  0  0  0  0
 31 32  1  0  0  0  0
 31 39  1  0  0  0  0
 31 40  1  0  0  0  0
 32 33  1  0  0  0  0
 32 41  1  0  0  0  0
 32 42  1  0  0  0  0
 43 44  1  0  0  0  0
 43 45  1  0  0  0  0
 43 46  1  0  0  0  0
 46 47  1  0  0  0  0
 46 49  1  0  0  0  0
 46 53  1  0  0  0  0
 47 48  1  0  0  0  0
 49 50  1  0  0  0  0
 49 51  1  0  0  0  0
 49 52  1  0  0  0  0
 53 54  1  0  0  0  0
 53 55  1  0  0  0  0
 53 56  1  0  0  0  0
M  END
$$$$
