p38a_2p
 OpenBabel02232411163D
Structure written by MMmdl.
 58 61  0  0  0  0  0  0  0  0999 V2000
   36.3220   35.8510   16.0750 C   0  0  0  0  0  0  0  0  0  0  0  0
   34.3330   35.0620   21.6220 C   0  0  0  0  0  0  0  0  0  0  0  0
   35.5860   35.4390   17.1820 C   0  0  0  0  0  0  0  0  0  0  0  0
   33.9900   39.2640   23.9940 C   0  0  0  0  0  0  0  0  0  0  0  0
   34.6500   37.9260   21.6790 C   0  0  0  0  0  0  0  0  0  0  0  0
   35.0760   37.1940   20.5170 C   0  0  0  0  0  0  0  0  0  0  0  0
   37.6160   36.3260   16.3270 C   0  0  0  0  0  0  0  0  0  0  0  0
   38.1900   36.3600   17.6010 C   0  0  0  0  0  0  0  0  0  0  0  0
   37.4220   35.9610   18.7000 C   0  0  0  0  0  0  0  0  0  0  0  0
   34.1600   37.2290   22.8220 C   0  0  0  0  0  0  0  0  0  0  0  0
   34.7050   39.3430   21.7640 C   0  0  0  0  0  0  0  0  0  0  0  0
   34.9530   35.8470   20.5160 C   0  0  0  0  0  0  0  0  0  0  0  0
   36.1190   35.5030   18.4860 C   0  0  0  0  0  0  0  0  0  0  0  0
   34.3610   34.9530   17.0320 F   0  0  0  0  0  0  0  0  0  0  0  0
   35.3110   34.9650   19.4970 O   0  0  0  0  0  0  0  0  0  0  0  0
   34.3860   40.0230   22.8760 N   0  0  0  0  0  0  0  0  0  0  0  0
   34.0950   33.8760   21.5850 O   0  0  0  0  0  0  0  0  0  0  0  0
   33.9800   35.8330   22.7860 N   0  0  0  0  0  0  0  0  0  0  0  0
   33.8400   37.8930   23.9790 N   0  0  0  0  0  0  0  0  0  0  0  0
   33.6620   39.9460   25.1490 N   0  0  0  0  0  0  0  0  0  0  0  0
   35.9080   35.8350   15.0630 H   0  0  0  0  0  0  0  0  0  0  0  0
   35.4970   37.7580   19.6800 H   0  0  0  0  0  0  0  0  0  0  0  0
   39.2130   36.7210   17.7400 H   0  0  0  0  0  0  0  0  0  0  0  0
   37.8350   36.0300   19.7080 H   0  0  0  0  0  0  0  0  0  0  0  0
   35.0250   39.9310   20.8880 H   0  0  0  0  0  0  0  0  0  0  0  0
   33.8590   40.9660   25.2020 H   0  0  0  0  0  0  0  0  0  0  0  0
   38.3190   36.8010   15.3010 F   0  0  0  0  0  0  0  0  0  0  0  0
   32.6470   39.4130   28.7910 C   0  0  0  0  0  0  0  0  0  0  0  0
   32.6230   40.0110   27.3800 C   0  0  0  0  0  0  0  0  0  0  0  0
   33.6080   39.2490   26.4700 C   0  0  0  0  0  0  0  0  0  0  0  0
   35.0150   39.2050   27.1100 C   0  0  0  0  0  0  0  0  0  0  0  0
   34.9240   38.6580   28.5410 C   0  0  0  0  0  0  0  0  0  0  0  0
   33.9850   39.4080   29.3430 O   0  0  0  0  0  0  0  0  0  0  0  0
   32.2530   38.3700   28.7910 H   0  0  0  0  0  0  0  0  0  0  0  0
   32.0990   40.0620   29.5130 H   0  0  0  0  0  0  0  0  0  0  0  0
   32.9120   41.0880   27.4300 H   0  0  0  0  0  0  0  0  0  0  0  0
   31.5950   39.9390   26.9540 H   0  0  0  0  0  0  0  0  0  0  0  0
   33.2370   38.1990   26.3140 H   0  0  0  0  0  0  0  0  0  0  0  0
   35.6800   38.5400   26.5100 H   0  0  0  0  0  0  0  0  0  0  0  0
   35.4560   40.2300   27.1260 H   0  0  0  0  0  0  0  0  0  0  0  0
   34.6240   37.5850   28.5350 H   0  0  0  0  0  0  0  0  0  0  0  0
   35.8830   38.8080   29.0900 H   0  0  0  0  0  0  0  0  0  0  0  0
   33.3540   35.1450   23.9670 C   0  0  0  0  0  0  0  0  0  0  0  0
   32.4860   35.7750   24.3070 H   0  0  0  0  0  0  0  0  0  0  0  0
   32.9760   34.1420   23.6280 H   0  0  0  0  0  0  0  0  0  0  0  0
   34.3470   34.9590   25.1330 C   0  0  0  0  0  0  0  0  0  0  0  0
   34.9360   34.0190   25.0010 H   0  0  0  0  0  0  0  0  0  0  0  0
   35.0820   35.8100   25.1390 H   0  0  0  0  0  0  0  0  0  0  0  0
   33.6560   34.9650   26.5040 C   0  0  0  0  0  0  0  0  0  0  0  0
   33.0140   35.8850   26.5800 H   0  0  0  0  0  0  0  0  0  0  0  0
   34.4650   35.0990   27.2830 H   0  0  0  0  0  0  0  0  0  0  0  0
   32.7160   33.5380   26.9170 S   0  0  0  0  0  0  0  0  0  0  0  0
   31.8770   33.0880   25.7820 O   0  0  0  0  0  0  0  0  0  0  0  0
   31.8650   33.8050   28.1070 O   0  0  0  0  0  0  0  0  0  0  0  0
   33.8890   32.3170   27.3170 C   0  0  0  0  0  0  0  0  0  0  0  0
   34.5920   32.6780   28.1130 H   0  0  0  0  0  0  0  0  0  0  0  0
   33.4110   31.3830   27.7120 H   0  0  0  0  0  0  0  0  0  0  0  0
   34.5090   32.0130   26.4390 H   0  0  0  0  0  0  0  0  0  0  0  0
  1  3  2  0  0  0  0
  1  7  1  0  0  0  0
  1 21  1  0  0  0  0
  2 12  1  0  0  0  0
  2 17  2  0  0  0  0
  2 18  1  0  0  0  0
  3 13  1  0  0  0  0
  3 14  1  0  0  0  0
  4 16  2  0  0  0  0
  4 19  1  0  0  0  0
  4 20  1  0  0  0  0
  5  6  1  0  0  0  0
  5 10  1  0  0  0  0
  5 11  2  0  0  0  0
  6 12  2  0  0  0  0
  6 22  1  0  0  0  0
  7  8  2  0  0  0  0
  7 27  1  0  0  0  0
  8  9  1  0  0  0  0
  8 23  1  0  0  0  0
  9 13  2  0  0  0  0
  9 24  1  0  0  0  0
 10 18  1  0  0  0  0
 10 19  2  0  0  0  0
 11 16  1  0  0  0  0
 11 25  1  0  0  0  0
 12 15  1  0  0  0  0
 13 15  1  0  0  0  0
 18 43  1  0  0  0  0
 20 26  1  0  0  0  0
 20 30  1  0  0  0  0
 28 29  1  0  0  0  0
 28 33  1  0  0  0  0
 28 34  1  0  0  0  0
 28 35  1  0  0  0  0
 29 30  1  0  0  0  0
 29 36  1  0  0  0  0
 29 37  1  0  0  0  0
 30 31  1  0  0  0  0
 30 38  1  0  0  0  0
 31 32  1  0  0  0  0
 31 39  1  0  0  0  0
 31 40  1  0  0  0  0
 32 33  1  0  0  0  0
 32 41  1  0  0  0  0
 32 42  1  0  0  0  0
 43 44  1  0  0  0  0
 43 45  1  0  0  0  0
 43 46  1  0  0  0  0
 46 47  1  0  0  0  0
 46 48  1  0  0  0  0
 46 49  1  0  0  0  0
 49 50  1  0  0  0  0
 49 51  1  0  0  0  0
 49 52  1  0  0  0  0
 52 53  2  0  0  0  0
 52 54  2  0  0  0  0
 52 55  1  0  0  0  0
 55 56  1  0  0  0  0
 55 57  1  0  0  0  0
 55 58  1  0  0  0  0
M  END
$$$$
