p38a_2x
 OpenBabel02232411163D
Structure written by MMmdl.
 43 46  0  0  1  0  0  0  0  0999 V2000
   36.3640   36.0850   15.7510 C   0  0  0  0  0  0  0  0  0  0  0  0
   34.5820   34.9920   21.2810 C   0  0  0  0  0  0  0  0  0  0  0  0
   35.7080   35.6030   16.8790 C   0  0  0  0  0  0  0  0  0  0  0  0
   34.0310   39.0400   23.8660 C   0  0  0  0  0  0  0  0  0  0  0  0
   34.7720   37.8580   21.4880 C   0  0  0  0  0  0  0  0  0  0  0  0
   35.2290   37.2060   20.2890 C   0  0  0  0  0  0  0  0  0  0  0  0
   37.6590   36.5830   15.9460 C   0  0  0  0  0  0  0  0  0  0  0  0
   38.3050   36.5840   17.1850 C   0  0  0  0  0  0  0  0  0  0  0  0
   37.6100   36.1310   18.3130 C   0  0  0  0  0  0  0  0  0  0  0  0
   34.3450   37.0790   22.6040 C   0  0  0  0  0  0  0  0  0  0  0  0
   34.7450   39.2690   21.6450 C   0  0  0  0  0  0  0  0  0  0  0  0
   35.1680   35.8570   20.2190 C   0  0  0  0  0  0  0  0  0  0  0  0
   36.3110   35.6400   18.1530 C   0  0  0  0  0  0  0  0  0  0  0  0
   33.8530   34.8920   23.6970 C   0  0  0  0  0  0  0  0  0  0  0  0
   34.4940   35.0800   16.7810 F   0  0  0  0  0  0  0  0  0  0  0  0
   35.5820   35.0280   19.1800 O   0  0  0  0  0  0  0  0  0  0  0  0
   34.3910   39.8730   22.7910 N   0  0  0  0  0  0  0  0  0  0  0  0
   34.3630   33.8050   21.1770 O   0  0  0  0  0  0  0  0  0  0  0  0
   34.2700   35.6810   22.5040 N   0  0  0  0  0  0  0  0  0  0  0  0
   33.9910   37.6630   23.7950 N   0  0  0  0  0  0  0  0  0  0  0  0
   33.6250   39.6490   25.0410 N   0  0  0  0  0  0  0  0  0  0  0  0
   35.8870   36.0970   14.7690 H   0  0  0  0  0  0  0  0  0  0  0  0
   35.6260   37.8290   19.4840 H   0  0  0  0  0  0  0  0  0  0  0  0
   39.3260   36.9620   17.2860 H   0  0  0  0  0  0  0  0  0  0  0  0
   38.0800   36.1870   19.2970 H   0  0  0  0  0  0  0  0  0  0  0  0
   35.0240   39.9200   20.7990 H   0  0  0  0  0  0  0  0  0  0  0  0
   34.5310   35.1250   24.5630 H   0  0  0  0  0  0  0  0  0  0  0  0
   32.8020   35.1600   23.9890 H   0  0  0  0  0  0  0  0  0  0  0  0
   33.9080   33.7950   23.4750 H   0  0  0  0  0  0  0  0  0  0  0  0
   33.7880   40.6710   25.1540 H   0  0  0  0  0  0  0  0  0  0  0  0
   38.2870   37.1140   14.9000 F   0  0  0  0  0  0  0  0  0  0  0  0
   33.4520   39.3920   28.6360 O   0  0  0  0  0  0  0  0  0  0  0  0
   34.8290   39.0180   28.3460 C   0  0  0  0  0  0  0  0  0  0  0  0
   34.8550   38.4610   26.9170 C   0  0  0  0  0  0  0  0  0  0  0  0
   33.4910   38.8580   26.2930 C   0  0  1  0  0  0  0  0  0  0  0  0
   32.7840   39.7010   27.3890 C   0  0  0  0  0  0  0  0  0  0  0  0
   35.0740   38.2580   29.1200 H   0  0  0  0  0  0  0  0  0  0  0  0
   35.4560   39.9320   28.4490 H   0  0  0  0  0  0  0  0  0  0  0  0
   35.7090   38.8850   26.3440 H   0  0  0  0  0  0  0  0  0  0  0  0
   34.9620   37.3510   26.9160 H   0  0  0  0  0  0  0  0  0  0  0  0
   32.8880   37.9360   26.0610 H   0  0  0  0  0  0  0  0  0  0  0  0
   31.7300   39.3920   27.5500 H   0  0  0  0  0  0  0  0  0  0  0  0
   32.8760   40.7960   27.2160 H   0  0  0  0  0  0  0  0  0  0  0  0
  1  3  2  0  0  0  0
  1  7  1  0  0  0  0
  1 22  1  0  0  0  0
  2 12  1  0  0  0  0
  2 18  2  0  0  0  0
  2 19  1  0  0  0  0
  3 13  1  0  0  0  0
  3 15  1  0  0  0  0
  4 17  2  0  0  0  0
  4 20  1  0  0  0  0
  4 21  1  0  0  0  0
  5  6  1  0  0  0  0
  5 10  1  0  0  0  0
  5 11  2  0  0  0  0
  6 12  2  0  0  0  0
  6 23  1  0  0  0  0
  7  8  2  0  0  0  0
  7 31  1  0  0  0  0
  8  9  1  0  0  0  0
  8 24  1  0  0  0  0
  9 13  2  0  0  0  0
  9 25  1  0  0  0  0
 10 19  1  0  0  0  0
 10 20  2  0  0  0  0
 11 17  1  0  0  0  0
 11 26  1  0  0  0  0
 12 16  1  0  0  0  0
 13 16  1  0  0  0  0
 14 19  1  0  0  0  0
 14 27  1  0  0  0  0
 14 28  1  0  0  0  0
 14 29  1  0  0  0  0
 21 30  1  0  0  0  0
 21 35  1  0  0  0  0
 32 33  1  0  0  0  0
 32 36  1  0  0  0  0
 33 34  1  0  0  0  0
 33 37  1  0  0  0  0
 33 38  1  0  0  0  0
 34 35  1  0  0  0  0
 34 39  1  0  0  0  0
 34 40  1  0  0  0  0
 35 36  1  0  0  0  0
 35 41  1  1  0  0  0
 36 42  1  0  0  0  0
 36 43  1  0  0  0  0
M  END
$$$$
