p38a_2e
 OpenBabel02232411163D
Structure written by MMmdl.
 46 49  0  0  0  0  0  0  0  0999 V2000
   33.7970   37.8980   26.7500 C   0  0  0  0  0  0  0  0  0  0  0  0
   32.7320   36.9140   26.2510 C   0  0  0  0  0  0  0  0  0  0  0  0
   31.2060   38.6960   25.7120 C   0  0  0  0  0  0  0  0  0  0  0  0
   32.0860   39.7460   26.3880 C   0  0  0  0  0  0  0  0  0  0  0  0
   36.2930   36.4680   15.6230 C   0  0  0  0  0  0  0  0  0  0  0  0
   31.3800   37.4160   26.3500 O   0  0  0  0  0  0  0  0  0  0  0  0
   34.6850   35.1310   21.1810 C   0  0  0  0  0  0  0  0  0  0  0  0
   35.5050   36.0030   16.6780 C   0  0  0  0  0  0  0  0  0  0  0  0
   34.3120   39.1490   23.8550 C   0  0  0  0  0  0  0  0  0  0  0  0
   33.5840   39.3640   26.3460 C   0  0  0  0  0  0  0  0  0  0  0  0
   34.7910   37.9930   21.3870 C   0  0  0  0  0  0  0  0  0  0  0  0
   35.0790   37.3680   20.1260 C   0  0  0  0  0  0  0  0  0  0  0  0
   37.6440   36.7340   15.8680 C   0  0  0  0  0  0  0  0  0  0  0  0
   38.2530   36.5430   17.1140 C   0  0  0  0  0  0  0  0  0  0  0  0
   37.4610   36.0940   18.1730 C   0  0  0  0  0  0  0  0  0  0  0  0
   34.5780   37.2010   22.5540 C   0  0  0  0  0  0  0  0  0  0  0  0
   34.7120   39.4030   21.5470 C   0  0  0  0  0  0  0  0  0  0  0  0
   35.0560   36.0170   20.0480 C   0  0  0  0  0  0  0  0  0  0  0  0
   36.1060   35.8270   17.9310 C   0  0  0  0  0  0  0  0  0  0  0  0
   34.4800   34.9530   23.6750 C   0  0  0  0  0  0  0  0  0  0  0  0
   34.4410   35.8060   16.5250 H   0  0  0  0  0  0  0  0  0  0  0  0
   38.3730   37.2390   14.8720 F   0  0  0  0  0  0  0  0  0  0  0  0
   35.2990   35.2360   18.9240 O   0  0  0  0  0  0  0  0  0  0  0  0
   34.4760   39.9880   22.7270 N   0  0  0  0  0  0  0  0  0  0  0  0
   34.4740   33.9400   21.1080 O   0  0  0  0  0  0  0  0  0  0  0  0
   34.5880   35.8000   22.4540 N   0  0  0  0  0  0  0  0  0  0  0  0
   34.3400   37.7750   23.7820 N   0  0  0  0  0  0  0  0  0  0  0  0
   34.2090   39.8180   25.0600 N   0  0  0  0  0  0  0  0  0  0  0  0
   33.8130   37.8750   27.8730 H   0  0  0  0  0  0  0  0  0  0  0  0
   34.8020   37.5490   26.4010 H   0  0  0  0  0  0  0  0  0  0  0  0
   32.9050   36.6400   25.1870 H   0  0  0  0  0  0  0  0  0  0  0  0
   32.6950   36.0130   26.9080 H   0  0  0  0  0  0  0  0  0  0  0  0
   30.1280   38.9070   25.8810 H   0  0  0  0  0  0  0  0  0  0  0  0
   31.4440   38.6100   24.6290 H   0  0  0  0  0  0  0  0  0  0  0  0
   31.9180   40.7380   25.9100 H   0  0  0  0  0  0  0  0  0  0  0  0
   31.8020   39.8380   27.4660 H   0  0  0  0  0  0  0  0  0  0  0  0
   35.8470   36.6380   14.6420 H   0  0  0  0  0  0  0  0  0  0  0  0
   34.1260   40.0080   27.1110 H   0  0  0  0  0  0  0  0  0  0  0  0
   35.3180   38.0080   19.2740 H   0  0  0  0  0  0  0  0  0  0  0  0
   39.3100   36.7750   17.2710 H   0  0  0  0  0  0  0  0  0  0  0  0
   37.8910   35.9890   19.1700 H   0  0  0  0  0  0  0  0  0  0  0  0
   34.8300   40.0620   20.6710 H   0  0  0  0  0  0  0  0  0  0  0  0
   34.9820   35.4590   24.5440 H   0  0  0  0  0  0  0  0  0  0  0  0
   33.4020   34.7720   23.9260 H   0  0  0  0  0  0  0  0  0  0  0  0
   34.9860   33.9680   23.4990 H   0  0  0  0  0  0  0  0  0  0  0  0
   34.1530   40.8640   24.9950 H   0  0  0  0  0  0  0  0  0  0  0  0
  1  2  1  0  0  0  0
  1 10  1  0  0  0  0
  1 29  1  0  0  0  0
  1 30  1  0  0  0  0
  2  6  1  0  0  0  0
  2 31  1  0  0  0  0
  2 32  1  0  0  0  0
  3  4  1  0  0  0  0
  3  6  1  0  0  0  0
  3 33  1  0  0  0  0
  3 34  1  0  0  0  0
  4 10  1  0  0  0  0
  4 35  1  0  0  0  0
  4 36  1  0  0  0  0
  5  8  2  0  0  0  0
  5 13  1  0  0  0  0
  5 37  1  0  0  0  0
  7 18  1  0  0  0  0
  7 25  2  0  0  0  0
  7 26  1  0  0  0  0
  8 19  1  0  0  0  0
  8 21  1  0  0  0  0
  9 24  2  0  0  0  0
  9 27  1  0  0  0  0
  9 28  1  0  0  0  0
 10 28  1  0  0  0  0
 10 38  1  0  0  0  0
 11 12  1  0  0  0  0
 11 16  1  0  0  0  0
 11 17  2  0  0  0  0
 12 18  2  0  0  0  0
 12 39  1  0  0  0  0
 13 14  2  0  0  0  0
 13 22  1  0  0  0  0
 14 15  1  0  0  0  0
 14 40  1  0  0  0  0
 15 19  2  0  0  0  0
 15 41  1  0  0  0  0
 16 26  1  0  0  0  0
 16 27  2  0  0  0  0
 17 24  1  0  0  0  0
 17 42  1  0  0  0  0
 18 23  1  0  0  0  0
 19 23  1  0  0  0  0
 20 26  1  0  0  0  0
 20 43  1  0  0  0  0
 20 44  1  0  0  0  0
 20 45  1  0  0  0  0
 28 46  1  0  0  0  0
M  END
$$$$
