18639-1
 OpenBabel02232411163D
Structure written by MMmdl.
 48 49  0  0  0  0  0  0  0  0999 V2000
   23.8590   12.6370   30.3370 C   0  0  0  0  0  0  0  0  0  0  0  0
   23.4050   11.1950   30.4550 C   0  0  0  0  0  0  0  0  0  0  0  0
   22.1500   11.2990   31.2450 O   0  0  0  0  0  0  0  0  0  0  0  0
   21.5190   10.1590   31.5950 C   0  0  0  0  0  0  0  0  0  0  0  0
   22.0080    8.9700   31.1660 N   0  0  0  0  0  0  0  0  0  0  0  0
   21.2840    7.8310   31.4860 C   0  0  0  0  0  0  0  0  0  0  0  0
   20.1240    7.8670   32.2520 C   0  0  0  0  0  0  0  0  0  0  0  0
   19.6290    9.1160   32.7130 C   0  0  0  0  0  0  0  0  0  0  0  0
   18.4840    9.1520   33.4660 N   0  0  0  0  0  0  0  0  0  0  0  0
   20.3310   10.3150   32.3700 C   0  0  0  0  0  0  0  0  0  0  0  0
   19.9030   11.6150   32.7140 C   0  0  0  0  0  0  0  0  0  0  0  0
   19.5990   12.7080   32.9530 N   0  0  0  0  0  0  0  0  0  0  0  0
   21.8640    6.6650   30.9330 N   0  0  0  0  0  0  0  0  0  0  0  0
   21.2690    5.3880   30.8590 C   0  0  0  0  0  0  0  0  0  0  0  0
   20.1800    5.1380   31.3330 O   0  0  0  0  0  0  0  0  0  0  0  0
   22.0860    4.3800   30.0580 C   0  0  0  0  0  0  0  0  0  0  0  0
   23.4460    4.0900   30.6220 C   0  0  0  0  0  0  0  0  0  0  0  0
   24.5550    4.9370   30.3060 C   0  0  0  0  0  0  0  0  0  0  0  0
   24.2120    5.9880   29.4660 O   0  0  0  0  0  0  0  0  0  0  0  0
   25.1870    7.0530   29.2870 C   0  0  0  0  0  0  0  0  0  0  0  0
   25.8300    4.6770   30.7830 C   0  0  0  0  0  0  0  0  0  0  0  0
   26.0440    3.5560   31.6130 C   0  0  0  0  0  0  0  0  0  0  0  0
   27.3930    3.2790   32.1150 N   0  3  0  0  0  0  0  0  0  0  0  0
   27.5150    2.4810   33.0320 O   0  5  0  0  0  0  0  0  0  0  0  0
   28.3410    3.8530   31.5930 O   0  0  0  0  0  0  0  0  0  0  0  0
   24.9600    2.7060   31.9310 C   0  0  0  0  0  0  0  0  0  0  0  0
   23.6690    2.9800   31.4200 C   0  0  0  0  0  0  0  0  0  0  0  0
   25.2920    1.6610   32.7390 O   0  0  0  0  0  0  0  0  0  0  0  0
   24.2830    0.6330   32.9690 C   0  0  0  0  0  0  0  0  0  0  0  0
   24.0840   13.0760   31.3340 H   0  0  0  0  0  0  0  0  0  0  0  0
   23.0820   13.2610   29.8350 H   0  0  0  0  0  0  0  0  0  0  0  0
   24.7870   12.6680   29.7120 H   0  0  0  0  0  0  0  0  0  0  0  0
   23.1440   10.7470   29.4700 H   0  0  0  0  0  0  0  0  0  0  0  0
   24.1240   10.5640   31.0240 H   0  0  0  0  0  0  0  0  0  0  0  0
   19.5760    6.9520   32.4870 H   0  0  0  0  0  0  0  0  0  0  0  0
   17.9800    8.2790   33.7140 H   0  0  0  0  0  0  0  0  0  0  0  0
   18.0740   10.0370   33.7680 H   0  0  0  0  0  0  0  0  0  0  0  0
   22.7850    6.8070   30.4480 H   0  0  0  0  0  0  0  0  0  0  0  0
   21.4990    3.4240   29.9920 H   0  0  0  0  0  0  0  0  0  0  0  0
   22.2080    4.7930   29.0160 H   0  0  0  0  0  0  0  0  0  0  0  0
   25.5170    7.4500   30.2700 H   0  0  0  0  0  0  0  0  0  0  0  0
   26.0320    6.6750   28.6740 H   0  0  0  0  0  0  0  0  0  0  0  0
   24.5830    7.8070   28.7310 H   0  0  0  0  0  0  0  0  0  0  0  0
   26.6800    5.3180   30.5180 H   0  0  0  0  0  0  0  0  0  0  0  0
   22.8420    2.3030   31.6530 H   0  0  0  0  0  0  0  0  0  0  0  0
   24.8580   -0.1080   33.5750 H   0  0  0  0  0  0  0  0  0  0  0  0
   23.4350    1.0510   33.5510 H   0  0  0  0  0  0  0  0  0  0  0  0
   23.9610    0.1920   32.0010 H   0  0  0  0  0  0  0  0  0  0  0  0
  1  2  1  0  0  0  0
  1 30  1  0  0  0  0
  1 31  1  0  0  0  0
  1 32  1  0  0  0  0
  2  3  1  0  0  0  0
  2 33  1  0  0  0  0
  2 34  1  0  0  0  0
  3  4  1  0  0  0  0
  4 10  2  0  0  0  0
  4  5  1  0  0  0  0
  5  6  2  0  0  0  0
  6  7  1  0  0  0  0
  6 13  1  0  0  0  0
  7  8  2  0  0  0  0
  7 35  1  0  0  0  0
  8  9  1  0  0  0  0
  8 10  1  0  0  0  0
  9 36  1  0  0  0  0
  9 37  1  0  0  0  0
 10 11  1  0  0  0  0
 11 12  3  0  0  0  0
 13 14  1  0  0  0  0
 13 38  1  0  0  0  0
 14 15  2  0  0  0  0
 14 16  1  0  0  0  0
 16 17  1  0  0  0  0
 16 39  1  0  0  0  0
 16 40  1  0  0  0  0
 17 27  2  0  0  0  0
 17 18  1  0  0  0  0
 18 19  1  0  0  0  0
 18 21  2  0  0  0  0
 19 20  1  0  0  0  0
 20 41  1  0  0  0  0
 20 42  1  0  0  0  0
 20 43  1  0  0  0  0
 21 22  1  0  0  0  0
 21 44  1  0  0  0  0
 22 23  1  0  0  0  0
 22 26  2  0  0  0  0
 23 24  1  0  0  0  0
 23 25  2  0  0  0  0
 26 27  1  0  0  0  0
 26 28  1  0  0  0  0
 27 45  1  0  0  0  0
 28 29  1  0  0  0  0
 29 46  1  0  0  0  0
 29 47  1  0  0  0  0
 29 48  1  0  0  0  0
M  CHG  2  23   1  24  -1
M  END
$$$$
