CAT-13d
 OpenBabel02232411143D
Structure written by MMmdl.
 43 46  0  0  1  0  0  0  0  0999 V2000
   11.6520   -2.2980    1.2540 C   0  0  0  0  0  0  0  0  0  0  0  0
   12.9920   -2.4010    0.6400 N   0  0  0  0  0  0  0  0  0  0  0  0
   14.1790   -2.3740    1.3670 C   0  0  0  0  0  0  0  0  0  0  0  0
   14.3150   -2.4660    2.7220 N   0  0  0  0  0  0  0  0  0  0  0  0
   15.2720   -2.3170    0.4940 N   0  3  0  0  0  0  0  0  0  0  0  0
   14.8300   -2.6330   -0.9170 C   0  0  1  0  0  0  0  0  0  0  0  0
   15.4130   -1.5960   -1.8540 C   0  0  0  0  0  0  0  0  0  0  0  0
   16.2390   -1.9510   -2.9270 C   0  0  0  0  0  0  0  0  0  0  0  0
   16.7130   -0.9540   -3.7870 C   0  0  0  0  0  0  0  0  0  0  0  0
   16.4060    0.3900   -3.5640 C   0  0  0  0  0  0  0  0  0  0  0  0
   15.6250    0.7600   -2.4560 C   0  0  0  0  0  0  0  0  0  0  0  0
   15.3420    2.1740   -2.1230 C   0  0  0  0  0  0  0  0  0  0  0  0
   14.9460    3.1010   -3.0990 C   0  0  0  0  0  0  0  0  0  0  0  0
   14.6040    4.4070   -2.7300 C   0  0  0  0  0  0  0  0  0  0  0  0
   14.6360    4.8010   -1.3890 C   0  0  0  0  0  0  0  0  0  0  0  0
   15.0480    3.8720   -0.4300 C   0  0  0  0  0  0  0  0  0  0  0  0
   15.0260    4.2990    1.2420 Cl  0  0  0  0  0  0  0  0  0  0  0  0
   15.4290    2.5780   -0.7780 C   0  0  0  0  0  0  0  0  0  0  0  0
   15.1050   -0.2470   -1.6280 C   0  0  0  0  0  0  0  0  0  0  0  0
   15.0690   -4.0850   -1.2970 C   0  0  0  0  0  0  0  0  0  0  0  0
   16.3010   -4.8210   -0.8010 C   0  0  0  0  0  0  0  0  0  0  0  0
   14.9400   -5.1940   -0.2590 C   0  0  0  0  0  0  0  0  0  0  0  0
   13.2750   -2.4700   -0.8090 C   0  0  0  0  0  0  0  0  0  0  0  0
   12.4140   -2.4190   -1.6260 O   0  0  0  0  0  0  0  0  0  0  0  0
   10.9280   -2.9220    0.6640 H   0  0  0  0  0  0  0  0  0  0  0  0
   11.6720   -2.6810    2.3090 H   0  0  0  0  0  0  0  0  0  0  0  0
   11.3240   -1.2250    1.2500 H   0  0  0  0  0  0  0  0  0  0  0  0
   13.5930   -2.0650    3.3710 H   0  0  0  0  0  0  0  0  0  0  0  0
   16.2050   -2.6530    0.8580 H   0  0  0  0  0  0  0  0  0  0  0  0
   16.5160   -2.9930   -3.0920 H   0  0  0  0  0  0  0  0  0  0  0  0
   17.3420   -1.2340   -4.6390 H   0  0  0  0  0  0  0  0  0  0  0  0
   16.7780    1.1500   -4.2560 H   0  0  0  0  0  0  0  0  0  0  0  0
   14.8860    2.8010   -4.1500 H   0  0  0  0  0  0  0  0  0  0  0  0
   14.2840    5.1190   -3.5000 H   0  0  0  0  0  0  0  0  0  0  0  0
   14.3230    5.8060   -1.0990 H   0  0  0  0  0  0  0  0  0  0  0  0
   15.7770    1.8750   -0.0200 H   0  0  0  0  0  0  0  0  0  0  0  0
   14.4560    0.0170   -0.7940 H   0  0  0  0  0  0  0  0  0  0  0  0
   14.7150   -4.3070   -2.3200 H   0  0  0  0  0  0  0  0  0  0  0  0
   16.8310   -5.4770   -1.4900 H   0  0  0  0  0  0  0  0  0  0  0  0
   17.0090   -4.3000   -0.1520 H   0  0  0  0  0  0  0  0  0  0  0  0
   14.6980   -4.9370    0.7800 H   0  0  0  0  0  0  0  0  0  0  0  0
   14.4680   -6.1370   -0.5650 H   0  0  0  0  0  0  0  0  0  0  0  0
   15.2910   -2.3960    3.1280 H   0  0  0  0  0  0  0  0  0  0  0  0
  1  2  1  0  0  0  0
  1 25  1  0  0  0  0
  1 26  1  0  0  0  0
  1 27  1  0  0  0  0
  2  3  1  0  0  0  0
  2 23  1  0  0  0  0
  3  4  1  0  0  0  0
  3  5  2  0  0  0  0
  4 28  1  0  0  0  0
  4 43  1  0  0  0  0
  5  6  1  0  0  0  0
  5 29  1  0  0  0  0
  6  7  1  6  0  0  0
  6 20  1  0  0  0  0
  6 23  1  0  0  0  0
  7  8  2  0  0  0  0
  7 19  1  0  0  0  0
  8  9  1  0  0  0  0
  8 30  1  0  0  0  0
  9 10  2  0  0  0  0
  9 31  1  0  0  0  0
 10 11  1  0  0  0  0
 10 32  1  0  0  0  0
 11 12  1  0  0  0  0
 11 19  2  0  0  0  0
 12 13  2  0  0  0  0
 12 18  1  0  0  0  0
 13 14  1  0  0  0  0
 13 33  1  0  0  0  0
 14 15  2  0  0  0  0
 14 34  1  0  0  0  0
 15 16  1  0  0  0  0
 15 35  1  0  0  0  0
 16 18  2  0  0  0  0
 16 17  1  0  0  0  0
 18 36  1  0  0  0  0
 19 37  1  0  0  0  0
 20 21  1  0  0  0  0
 20 22  1  0  0  0  0
 20 38  1  0  0  0  0
 21 22  1  0  0  0  0
 21 39  1  0  0  0  0
 21 40  1  0  0  0  0
 22 41  1  0  0  0  0
 22 42  1  0  0  0  0
 23 24  2  0  0  0  0
M  CHG  1   5   1
M  END
$$$$
