18629-1
 OpenBabel02232411163D
Structure written by MMmdl.
 41 42  0  0  0  0  0  0  0  0999 V2000
   23.8270   12.6430   30.3520 C   0  0  0  0  0  0  0  0  0  0  0  0
   23.3970   11.1920   30.4520 C   0  0  0  0  0  0  0  0  0  0  0  0
   22.1500   11.2680   31.2580 O   0  0  0  0  0  0  0  0  0  0  0  0
   21.5250   10.1210   31.5920 C   0  0  0  0  0  0  0  0  0  0  0  0
   22.0110    8.9390   31.1430 N   0  0  0  0  0  0  0  0  0  0  0  0
   21.2950    7.7920   31.4590 C   0  0  0  0  0  0  0  0  0  0  0  0
   20.1440    7.8150   32.2400 C   0  0  0  0  0  0  0  0  0  0  0  0
   19.6460    9.0600   32.7120 C   0  0  0  0  0  0  0  0  0  0  0  0
   18.5000    9.0930   33.4650 N   0  0  0  0  0  0  0  0  0  0  0  0
   20.3430   10.2640   32.3770 C   0  0  0  0  0  0  0  0  0  0  0  0
   19.9150   11.5590   32.7400 C   0  0  0  0  0  0  0  0  0  0  0  0
   19.6120   12.6490   32.9960 N   0  0  0  0  0  0  0  0  0  0  0  0
   21.8720    6.6390   30.8760 N   0  0  0  0  0  0  0  0  0  0  0  0
   21.3280    5.3290   30.8530 C   0  0  0  0  0  0  0  0  0  0  0  0
   20.2910    5.0440   31.4130 O   0  0  0  0  0  0  0  0  0  0  0  0
   22.1360    4.3570   30.0080 C   0  0  0  0  0  0  0  0  0  0  0  0
   23.4750    4.0350   30.6220 C   0  0  0  0  0  0  0  0  0  0  0  0
   24.6050    4.7940   30.2890 C   0  0  0  0  0  0  0  0  0  0  0  0
   25.8490    4.5180   30.8790 C   0  0  0  0  0  0  0  0  0  0  0  0
   27.0480    5.3250   30.5010 C   0  0  0  0  0  0  0  0  0  0  0  0
   25.9520    3.4670   31.8060 C   0  0  0  0  0  0  0  0  0  0  0  0
   24.8310    2.6970   32.1180 C   0  0  0  0  0  0  0  0  0  0  0  0
   23.5940    2.9690   31.5250 C   0  0  0  0  0  0  0  0  0  0  0  0
   24.0770   13.0650   31.3500 H   0  0  0  0  0  0  0  0  0  0  0  0
   23.0260   13.2660   29.8880 H   0  0  0  0  0  0  0  0  0  0  0  0
   24.7350   12.7030   29.7000 H   0  0  0  0  0  0  0  0  0  0  0  0
   23.1320   10.7560   29.4630 H   0  0  0  0  0  0  0  0  0  0  0  0
   24.1310   10.5650   31.0060 H   0  0  0  0  0  0  0  0  0  0  0  0
   19.6050    6.8960   32.4810 H   0  0  0  0  0  0  0  0  0  0  0  0
   18.0050    8.2210   33.7320 H   0  0  0  0  0  0  0  0  0  0  0  0
   18.0960    9.9770   33.7770 H   0  0  0  0  0  0  0  0  0  0  0  0
   22.7680    6.8050   30.3760 H   0  0  0  0  0  0  0  0  0  0  0  0
   21.5440    3.4110   29.8890 H   0  0  0  0  0  0  0  0  0  0  0  0
   22.2810    4.8020   28.9880 H   0  0  0  0  0  0  0  0  0  0  0  0
   24.5400    5.6010   29.5570 H   0  0  0  0  0  0  0  0  0  0  0  0
   26.8030    6.4150   30.4590 H   0  0  0  0  0  0  0  0  0  0  0  0
   27.8880    5.1860   31.2220 H   0  0  0  0  0  0  0  0  0  0  0  0
   27.4100    5.0160   29.4870 H   0  0  0  0  0  0  0  0  0  0  0  0
   26.9120    3.2440   32.2780 H   0  0  0  0  0  0  0  0  0  0  0  0
   24.9220    1.8690   32.8290 H   0  0  0  0  0  0  0  0  0  0  0  0
   22.7380    2.3370   31.7610 H   0  0  0  0  0  0  0  0  0  0  0  0
  1  2  1  0  0  0  0
  1 24  1  0  0  0  0
  1 25  1  0  0  0  0
  1 26  1  0  0  0  0
  2  3  1  0  0  0  0
  2 27  1  0  0  0  0
  2 28  1  0  0  0  0
  3  4  1  0  0  0  0
  4 10  2  0  0  0  0
  4  5  1  0  0  0  0
  5  6  2  0  0  0  0
  6  7  1  0  0  0  0
  6 13  1  0  0  0  0
  7  8  2  0  0  0  0
  7 29  1  0  0  0  0
  8  9  1  0  0  0  0
  8 10  1  0  0  0  0
  9 30  1  0  0  0  0
  9 31  1  0  0  0  0
 10 11  1  0  0  0  0
 11 12  3  0  0  0  0
 13 14  1  0  0  0  0
 13 32  1  0  0  0  0
 14 15  2  0  0  0  0
 14 16  1  0  0  0  0
 16 17  1  0  0  0  0
 16 33  1  0  0  0  0
 16 34  1  0  0  0  0
 17 23  2  0  0  0  0
 17 18  1  0  0  0  0
 18 19  2  0  0  0  0
 18 35  1  0  0  0  0
 19 20  1  0  0  0  0
 19 21  1  0  0  0  0
 20 36  1  0  0  0  0
 20 37  1  0  0  0  0
 20 38  1  0  0  0  0
 21 22  2  0  0  0  0
 21 39  1  0  0  0  0
 22 23  1  0  0  0  0
 22 40  1  0  0  0  0
 23 41  1  0  0  0  0
M  END
$$$$
