p38a_3flw
 OpenBabel02232411163D
Structure written by MMmdl.
 49 51  0  0  0  0  0  0  0  0999 V2000
   36.3700   36.0750   15.7700 C   0  0  0  0  0  0  0  0  0  0  0  0
   37.6610   36.5930   15.9400 C   0  0  0  0  0  0  0  0  0  0  0  0
   33.0640   39.7150   27.4150 C   0  0  0  0  0  0  0  0  0  0  0  0
   34.5360   39.9550   27.7700 C   0  0  0  0  0  0  0  0  0  0  0  0
   31.3450   38.3630   26.1210 C   0  0  0  0  0  0  0  0  0  0  0  0
   34.0750   34.7700   23.7380 C   0  0  0  0  0  0  0  0  0  0  0  0
   34.5310   35.0500   16.8380 F   0  0  0  0  0  0  0  0  0  0  0  0
   35.7400   35.5910   16.9120 C   0  0  0  0  0  0  0  0  0  0  0  0
   38.2640   37.1260   14.8800 F   0  0  0  0  0  0  0  0  0  0  0  0
   38.3270   36.6100   17.1680 C   0  0  0  0  0  0  0  0  0  0  0  0
   37.6580   36.1530   18.3100 C   0  0  0  0  0  0  0  0  0  0  0  0
   36.3640   35.6440   18.1750 C   0  0  0  0  0  0  0  0  0  0  0  0
   35.6670   35.0170   19.2150 O   0  0  0  0  0  0  0  0  0  0  0  0
   35.2260   35.8350   20.2510 C   0  0  0  0  0  0  0  0  0  0  0  0
   35.2680   37.1840   20.3400 C   0  0  0  0  0  0  0  0  0  0  0  0
   34.7650   37.8110   21.5340 C   0  0  0  0  0  0  0  0  0  0  0  0
   34.6810   39.2210   21.6940 C   0  0  0  0  0  0  0  0  0  0  0  0
   34.2160   39.8050   22.8100 N   0  0  0  0  0  0  0  0  0  0  0  0
   34.6440   34.9490   21.2980 C   0  0  0  0  0  0  0  0  0  0  0  0
   34.4120   33.7680   21.1730 O   0  0  0  0  0  0  0  0  0  0  0  0
   34.3610   35.6130   22.5450 N   0  0  0  0  0  0  0  0  0  0  0  0
   34.3330   37.0130   22.6350 C   0  0  0  0  0  0  0  0  0  0  0  0
   33.8540   37.5800   23.7910 N   0  0  0  0  0  0  0  0  0  0  0  0
   33.7830   38.9590   23.8490 C   0  0  0  0  0  0  0  0  0  0  0  0
   33.1750   39.5540   24.9340 N   0  0  0  0  0  0  0  0  0  0  0  0
   32.8280   38.8100   26.1870 C   0  0  0  0  0  0  0  0  0  0  0  0
   31.1890   36.8420   26.2690 C   0  0  0  0  0  0  0  0  0  0  0  0
   31.4760   36.1470   25.0480 O   0  0  0  0  0  0  0  0  0  0  0  0
   35.2560   40.7070   26.7790 O   0  0  0  0  0  0  0  0  0  0  0  0
   35.8780   36.0730   14.7940 H   0  0  0  0  0  0  0  0  0  0  0  0
   32.5930   39.2130   28.3040 H   0  0  0  0  0  0  0  0  0  0  0  0
   32.5500   40.6950   27.2740 H   0  0  0  0  0  0  0  0  0  0  0  0
   34.5960   40.5260   28.7290 H   0  0  0  0  0  0  0  0  0  0  0  0
   35.1080   39.0000   27.8330 H   0  0  0  0  0  0  0  0  0  0  0  0
   30.7650   38.8510   26.9420 H   0  0  0  0  0  0  0  0  0  0  0  0
   30.8840   38.6960   25.1600 H   0  0  0  0  0  0  0  0  0  0  0  0
   32.9700   34.6080   23.8490 H   0  0  0  0  0  0  0  0  0  0  0  0
   34.5840   33.7760   23.6310 H   0  0  0  0  0  0  0  0  0  0  0  0
   34.4680   35.2670   24.6680 H   0  0  0  0  0  0  0  0  0  0  0  0
   39.3450   37.0010   17.2500 H   0  0  0  0  0  0  0  0  0  0  0  0
   38.1450   36.2190   19.2850 H   0  0  0  0  0  0  0  0  0  0  0  0
   35.6710   37.8230   19.5510 H   0  0  0  0  0  0  0  0  0  0  0  0
   35.0010   39.8880   20.8760 H   0  0  0  0  0  0  0  0  0  0  0  0
   33.2630   40.5830   25.0470 H   0  0  0  0  0  0  0  0  0  0  0  0
   33.4950   37.9080   26.2840 H   0  0  0  0  0  0  0  0  0  0  0  0
   31.8670   36.4500   27.0660 H   0  0  0  0  0  0  0  0  0  0  0  0
   30.1310   36.5700   26.4860 H   0  0  0  0  0  0  0  0  0  0  0  0
   32.2910   36.5450   24.6500 H   0  0  0  0  0  0  0  0  0  0  0  0
   34.6440   41.4000   26.3840 H   0  0  0  0  0  0  0  0  0  0  0  0
  1  2  2  0  0  0  0
  1  8  1  0  0  0  0
  1 30  1  0  0  0  0
  2  9  1  0  0  0  0
  2 10  1  0  0  0  0
  3  4  1  0  0  0  0
  3 26  1  0  0  0  0
  3 31  1  0  0  0  0
  3 32  1  0  0  0  0
  4 29  1  0  0  0  0
  4 33  1  0  0  0  0
  4 34  1  0  0  0  0
  5 26  1  0  0  0  0
  5 27  1  0  0  0  0
  5 35  1  0  0  0  0
  5 36  1  0  0  0  0
  6 21  1  0  0  0  0
  6 37  1  0  0  0  0
  6 38  1  0  0  0  0
  6 39  1  0  0  0  0
  7  8  1  0  0  0  0
  8 12  2  0  0  0  0
 10 11  2  0  0  0  0
 10 40  1  0  0  0  0
 11 12  1  0  0  0  0
 11 41  1  0  0  0  0
 12 13  1  0  0  0  0
 13 14  1  0  0  0  0
 14 15  2  0  0  0  0
 14 19  1  0  0  0  0
 15 16  1  0  0  0  0
 15 42  1  0  0  0  0
 16 17  2  0  0  0  0
 16 22  1  0  0  0  0
 17 18  1  0  0  0  0
 17 43  1  0  0  0  0
 18 24  2  0  0  0  0
 19 20  2  0  0  0  0
 19 21  1  0  0  0  0
 21 22  1  0  0  0  0
 22 23  2  0  0  0  0
 23 24  1  0  0  0  0
 24 25  1  0  0  0  0
 25 26  1  0  0  0  0
 25 44  1  0  0  0  0
 26 45  1  0  0  0  0
 27 28  1  0  0  0  0
 27 46  1  0  0  0  0
 27 47  1  0  0  0  0
 28 48  1  0  0  0  0
 29 49  1  0  0  0  0
M  END
$$$$
