p38a_2s
 OpenBabel02232411163D
Structure written by MMmdl.
 54 57  0  0  1  0  0  0  0  0999 V2000
   36.3680   36.0760   15.7420 C   0  0  0  0  0  0  0  0  0  0  0  0
   34.6720   34.9790   21.3230 C   0  0  0  0  0  0  0  0  0  0  0  0
   35.6990   35.5910   16.8600 C   0  0  0  0  0  0  0  0  0  0  0  0
   34.1300   39.0270   23.9060 C   0  0  0  0  0  0  0  0  0  0  0  0
   34.8460   37.8400   21.5200 C   0  0  0  0  0  0  0  0  0  0  0  0
   35.2430   37.1950   20.2960 C   0  0  0  0  0  0  0  0  0  0  0  0
   37.6610   36.5740   15.9530 C   0  0  0  0  0  0  0  0  0  0  0  0
   38.2940   36.5700   17.1990 C   0  0  0  0  0  0  0  0  0  0  0  0
   37.5850   36.1140   18.3170 C   0  0  0  0  0  0  0  0  0  0  0  0
   34.5300   37.0600   22.6700 C   0  0  0  0  0  0  0  0  0  0  0  0
   34.7660   39.2520   21.6590 C   0  0  0  0  0  0  0  0  0  0  0  0
   35.1880   35.8460   20.2270 C   0  0  0  0  0  0  0  0  0  0  0  0
   36.2860   35.6280   18.1420 C   0  0  0  0  0  0  0  0  0  0  0  0
   34.4850   35.0690   16.7480 F   0  0  0  0  0  0  0  0  0  0  0  0
   35.5350   35.0240   19.1580 O   0  0  0  0  0  0  0  0  0  0  0  0
   34.4230   39.8570   22.8070 N   0  0  0  0  0  0  0  0  0  0  0  0
   34.3780   33.8110   21.2200 O   0  0  0  0  0  0  0  0  0  0  0  0
   34.5540   35.6530   22.5940 N   0  0  0  0  0  0  0  0  0  0  0  0
   34.1840   37.6460   23.8630 N   0  0  0  0  0  0  0  0  0  0  0  0
   33.6810   39.6350   25.0570 N   0  0  0  0  0  0  0  0  0  0  0  0
   35.9030   36.0920   14.7540 H   0  0  0  0  0  0  0  0  0  0  0  0
   35.5880   37.8240   19.4710 H   0  0  0  0  0  0  0  0  0  0  0  0
   39.3140   36.9450   17.3120 H   0  0  0  0  0  0  0  0  0  0  0  0
   38.0420   36.1680   19.3070 H   0  0  0  0  0  0  0  0  0  0  0  0
   34.9900   39.9030   20.7970 H   0  0  0  0  0  0  0  0  0  0  0  0
   33.7750   40.6680   25.1470 H   0  0  0  0  0  0  0  0  0  0  0  0
   38.2990   37.1110   14.9160 F   0  0  0  0  0  0  0  0  0  0  0  0
   32.4180   38.9980   28.6030 C   0  0  0  0  0  0  0  0  0  0  0  0
   32.5180   39.6610   27.2240 C   0  0  0  0  0  0  0  0  0  0  0  0
   33.5310   38.8950   26.3470 C   0  0  0  0  0  0  0  0  0  0  0  0
   34.8870   38.7690   27.0750 C   0  0  0  0  0  0  0  0  0  0  0  0
   34.6740   38.1520   28.4630 C   0  0  0  0  0  0  0  0  0  0  0  0
   33.7120   38.9000   29.2410 O   0  0  0  0  0  0  0  0  0  0  0  0
   31.9730   37.9790   28.5260 H   0  0  0  0  0  0  0  0  0  0  0  0
   31.8510   39.6390   29.3170 H   0  0  0  0  0  0  0  0  0  0  0  0
   32.8500   40.7210   27.3460 H   0  0  0  0  0  0  0  0  0  0  0  0
   31.5180   39.6610   26.7300 H   0  0  0  0  0  0  0  0  0  0  0  0
   33.1310   37.8670   26.1280 H   0  0  0  0  0  0  0  0  0  0  0  0
   35.5730   38.1140   26.4860 H   0  0  0  0  0  0  0  0  0  0  0  0
   35.3600   39.7750   27.1730 H   0  0  0  0  0  0  0  0  0  0  0  0
   34.3290   37.0950   28.3780 H   0  0  0  0  0  0  0  0  0  0  0  0
   35.5950   38.2320   29.0840 H   0  0  0  0  0  0  0  0  0  0  0  0
   34.3820   34.8360   23.8300 C   0  0  0  0  0  0  0  0  0  0  0  0
   35.0130   33.9070   23.7360 H   0  0  0  0  0  0  0  0  0  0  0  0
   34.7720   35.4240   24.7120 H   0  0  0  0  0  0  0  0  0  0  0  0
   32.9150   34.4130   24.0840 C   0  0  2  0  0  0  0  0  0  0  0  0
   32.0150   35.5190   24.0620 O   0  0  0  0  0  0  0  0  0  0  0  0
   32.4660   36.3260   24.4220 H   0  0  0  0  0  0  0  0  0  0  0  0
   32.7870   33.6790   25.4450 C   0  0  0  0  0  0  0  0  0  0  0  0
   31.8650   34.0150   25.9790 H   0  0  0  0  0  0  0  0  0  0  0  0
   33.6800   33.8050   26.1010 H   0  0  0  0  0  0  0  0  0  0  0  0
   32.5300   33.7500   23.2690 H   0  0  0  0  0  0  0  0  0  0  0  0
   32.5570   32.2840   25.1940 O   0  0  0  0  0  0  0  0  0  0  0  0
   33.4540   31.8550   24.9780 H   0  0  0  0  0  0  0  0  0  0  0  0
  1  3  2  0  0  0  0
  1  7  1  0  0  0  0
  1 21  1  0  0  0  0
  2 12  1  0  0  0  0
  2 17  2  0  0  0  0
  2 18  1  0  0  0  0
  3 13  1  0  0  0  0
  3 14  1  0  0  0  0
  4 16  2  0  0  0  0
  4 19  1  0  0  0  0
  4 20  1  0  0  0  0
  5  6  1  0  0  0  0
  5 10  1  0  0  0  0
  5 11  2  0  0  0  0
  6 12  2  0  0  0  0
  6 22  1  0  0  0  0
  7  8  2  0  0  0  0
  7 27  1  0  0  0  0
  8  9  1  0  0  0  0
  8 23  1  0  0  0  0
  9 13  2  0  0  0  0
  9 24  1  0  0  0  0
 10 18  1  0  0  0  0
 10 19  2  0  0  0  0
 11 16  1  0  0  0  0
 11 25  1  0  0  0  0
 12 15  1  0  0  0  0
 13 15  1  0  0  0  0
 18 43  1  0  0  0  0
 20 26  1  0  0  0  0
 20 30  1  0  0  0  0
 28 29  1  0  0  0  0
 28 33  1  0  0  0  0
 28 34  1  0  0  0  0
 28 35  1  0  0  0  0
 29 30  1  0  0  0  0
 29 36  1  0  0  0  0
 29 37  1  0  0  0  0
 30 31  1  0  0  0  0
 30 38  1  0  0  0  0
 31 32  1  0  0  0  0
 31 39  1  0  0  0  0
 31 40  1  0  0  0  0
 32 33  1  0  0  0  0
 32 41  1  0  0  0  0
 32 42  1  0  0  0  0
 43 44  1  0  0  0  0
 43 45  1  0  0  0  0
 43 46  1  0  0  0  0
 46 47  1  0  0  0  0
 46 49  1  0  0  0  0
 46 52  1  1  0  0  0
 47 48  1  0  0  0  0
 49 50  1  0  0  0  0
 49 51  1  0  0  0  0
 49 53  1  0  0  0  0
 53 54  1  0  0  0  0
M  END
$$$$
