18659-1
 OpenBabel02232411163D
Structure written by MMmdl.
 50 51  0  0  0  0  0  0  0  0999 V2000
   25.7600   12.7590   29.1320 C   0  0  0  0  0  0  0  0  0  0  0  0
   24.8060   13.1860   30.1300 O   0  0  0  0  0  0  0  0  0  0  0  0
   23.4660   12.7220   29.8780 C   0  0  0  0  0  0  0  0  0  0  0  0
   23.3010   11.2640   30.3280 C   0  0  0  0  0  0  0  0  0  0  0  0
   22.1330   11.3430   31.2280 O   0  0  0  0  0  0  0  0  0  0  0  0
   21.5130   10.1930   31.5870 C   0  0  0  0  0  0  0  0  0  0  0  0
   21.9940    9.0110   31.1400 N   0  0  0  0  0  0  0  0  0  0  0  0
   21.2650    7.8690   31.4500 C   0  0  0  0  0  0  0  0  0  0  0  0
   20.1170    7.9030   32.2370 C   0  0  0  0  0  0  0  0  0  0  0  0
   19.6380    9.1480   32.7220 C   0  0  0  0  0  0  0  0  0  0  0  0
   18.5000    9.1840   33.4880 N   0  0  0  0  0  0  0  0  0  0  0  0
   20.3420   10.3490   32.3850 C   0  0  0  0  0  0  0  0  0  0  0  0
   19.9230   11.6460   32.7490 C   0  0  0  0  0  0  0  0  0  0  0  0
   19.6260   12.7370   33.0070 N   0  0  0  0  0  0  0  0  0  0  0  0
   21.8170    6.7140   30.8570 N   0  0  0  0  0  0  0  0  0  0  0  0
   21.2120    5.4360   30.7710 C   0  0  0  0  0  0  0  0  0  0  0  0
   20.1480    5.1770   31.2910 O   0  0  0  0  0  0  0  0  0  0  0  0
   21.9950    4.4580   29.9060 C   0  0  0  0  0  0  0  0  0  0  0  0
   23.3240    4.0950   30.5000 C   0  0  0  0  0  0  0  0  0  0  0  0
   24.4600    4.9070   30.2700 C   0  0  0  0  0  0  0  0  0  0  0  0
   24.1950    5.9970   29.4460 O   0  0  0  0  0  0  0  0  0  0  0  0
   25.2270    7.0090   29.3160 C   0  0  0  0  0  0  0  0  0  0  0  0
   25.7110    4.5980   30.8170 C   0  0  0  0  0  0  0  0  0  0  0  0
   25.8480    3.4610   31.6080 C   0  0  0  0  0  0  0  0  0  0  0  0
   24.7260    2.6400   31.8300 C   0  0  0  0  0  0  0  0  0  0  0  0
   23.4720    2.9430   31.2790 C   0  0  0  0  0  0  0  0  0  0  0  0
   25.0030    1.5620   32.6460 O   0  0  0  0  0  0  0  0  0  0  0  0
   24.0050    0.5140   32.7430 C   0  0  0  0  0  0  0  0  0  0  0  0
   26.6930   13.2710   29.4500 H   0  0  0  0  0  0  0  0  0  0  0  0
   25.8730   11.6530   29.1600 H   0  0  0  0  0  0  0  0  0  0  0  0
   25.4430   13.1030   28.1230 H   0  0  0  0  0  0  0  0  0  0  0  0
   22.8590   13.4060   30.5220 H   0  0  0  0  0  0  0  0  0  0  0  0
   23.2090   12.8390   28.8000 H   0  0  0  0  0  0  0  0  0  0  0  0
   23.0690   10.5810   29.4800 H   0  0  0  0  0  0  0  0  0  0  0  0
   24.1630   10.9030   30.9310 H   0  0  0  0  0  0  0  0  0  0  0  0
   19.5650    6.9890   32.4680 H   0  0  0  0  0  0  0  0  0  0  0  0
   17.9910    8.3130   33.7320 H   0  0  0  0  0  0  0  0  0  0  0  0
   18.0970   10.0680   33.7990 H   0  0  0  0  0  0  0  0  0  0  0  0
   22.7350    6.8560   30.3650 H   0  0  0  0  0  0  0  0  0  0  0  0
   21.3780    3.5340   29.7620 H   0  0  0  0  0  0  0  0  0  0  0  0
   22.1590    4.9340   28.9000 H   0  0  0  0  0  0  0  0  0  0  0  0
   26.0870    6.5930   28.7500 H   0  0  0  0  0  0  0  0  0  0  0  0
   25.5280    7.3880   30.3160 H   0  0  0  0  0  0  0  0  0  0  0  0
   24.6960    7.7940   28.7300 H   0  0  0  0  0  0  0  0  0  0  0  0
   26.5860    5.2250   30.6280 H   0  0  0  0  0  0  0  0  0  0  0  0
   26.8190    3.2080   32.0430 H   0  0  0  0  0  0  0  0  0  0  0  0
   22.6160    2.2900   31.4520 H   0  0  0  0  0  0  0  0  0  0  0  0
   24.5340   -0.2410   33.3730 H   0  0  0  0  0  0  0  0  0  0  0  0
   23.0950    0.8940   33.2550 H   0  0  0  0  0  0  0  0  0  0  0  0
   23.7830    0.1050   31.7340 H   0  0  0  0  0  0  0  0  0  0  0  0
  1  2  1  0  0  0  0
  1 29  1  0  0  0  0
  1 30  1  0  0  0  0
  1 31  1  0  0  0  0
  2  3  1  0  0  0  0
  3  4  1  0  0  0  0
  3 32  1  0  0  0  0
  3 33  1  0  0  0  0
  4  5  1  0  0  0  0
  4 34  1  0  0  0  0
  4 35  1  0  0  0  0
  5  6  1  0  0  0  0
  6 12  2  0  0  0  0
  6  7  1  0  0  0  0
  7  8  2  0  0  0  0
  8  9  1  0  0  0  0
  8 15  1  0  0  0  0
  9 10  2  0  0  0  0
  9 36  1  0  0  0  0
 10 11  1  0  0  0  0
 10 12  1  0  0  0  0
 11 37  1  0  0  0  0
 11 38  1  0  0  0  0
 12 13  1  0  0  0  0
 13 14  3  0  0  0  0
 15 16  1  0  0  0  0
 15 39  1  0  0  0  0
 16 17  2  0  0  0  0
 16 18  1  0  0  0  0
 18 19  1  0  0  0  0
 18 40  1  0  0  0  0
 18 41  1  0  0  0  0
 19 26  2  0  0  0  0
 19 20  1  0  0  0  0
 20 21  1  0  0  0  0
 20 23  2  0  0  0  0
 21 22  1  0  0  0  0
 22 42  1  0  0  0  0
 22 43  1  0  0  0  0
 22 44  1  0  0  0  0
 23 24  1  0  0  0  0
 23 45  1  0  0  0  0
 24 25  2  0  0  0  0
 24 46  1  0  0  0  0
 25 26  1  0  0  0  0
 25 27  1  0  0  0  0
 26 47  1  0  0  0  0
 27 28  1  0  0  0  0
 28 48  1  0  0  0  0
 28 49  1  0  0  0  0
 28 50  1  0  0  0  0
M  END
$$$$
