18639-1
 OpenBabel02232411163D
Structure written by MMmdl.
 48 49  0  0  0  0  0  0  0  0999 V2000
   23.1810   10.7940   29.0670 C   0  0  0  0  0  0  0  0  0  0  0  0
   23.4660   11.0430   30.5340 C   0  0  0  0  0  0  0  0  0  0  0  0
   22.2050   11.1550   31.2970 O   0  0  0  0  0  0  0  0  0  0  0  0
   21.5450   10.0280   31.6440 C   0  0  0  0  0  0  0  0  0  0  0  0
   22.0110    8.8300   31.2220 N   0  0  0  0  0  0  0  0  0  0  0  0
   21.2660    7.7050   31.5370 C   0  0  0  0  0  0  0  0  0  0  0  0
   20.1020    7.7600   32.2950 C   0  0  0  0  0  0  0  0  0  0  0  0
   19.6330    9.0200   32.7570 C   0  0  0  0  0  0  0  0  0  0  0  0
   18.4810    9.0770   33.4980 N   0  0  0  0  0  0  0  0  0  0  0  0
   20.3630   10.2060   32.4230 C   0  0  0  0  0  0  0  0  0  0  0  0
   19.9690   11.5120   32.7840 C   0  0  0  0  0  0  0  0  0  0  0  0
   19.6960   12.6100   33.0400 N   0  0  0  0  0  0  0  0  0  0  0  0
   21.8380    6.5380   30.9800 N   0  0  0  0  0  0  0  0  0  0  0  0
   21.2350    5.2680   30.8840 C   0  0  0  0  0  0  0  0  0  0  0  0
   20.1420    5.0210   31.3480 O   0  0  0  0  0  0  0  0  0  0  0  0
   22.0550    4.2690   30.0760 C   0  0  0  0  0  0  0  0  0  0  0  0
   23.4240    3.9990   30.6290 C   0  0  0  0  0  0  0  0  0  0  0  0
   24.5190    4.8610   30.3070 C   0  0  0  0  0  0  0  0  0  0  0  0
   24.1610    5.9060   29.4650 O   0  0  0  0  0  0  0  0  0  0  0  0
   25.1120    6.9960   29.3040 C   0  0  0  0  0  0  0  0  0  0  0  0
   25.7990    4.6220   30.7830 C   0  0  0  0  0  0  0  0  0  0  0  0
   26.0300    3.5100   31.6190 C   0  0  0  0  0  0  0  0  0  0  0  0
   27.3830    3.2570   32.1240 N   0  3  0  0  0  0  0  0  0  0  0  0
   27.5150    2.4790   33.0560 O   0  5  0  0  0  0  0  0  0  0  0  0
   28.3240    3.8290   31.5870 O   0  0  0  0  0  0  0  0  0  0  0  0
   24.9590    2.6450   31.9440 C   0  0  0  0  0  0  0  0  0  0  0  0
   23.6650    2.8960   31.4320 C   0  0  0  0  0  0  0  0  0  0  0  0
   25.3070    1.6110   32.7610 O   0  0  0  0  0  0  0  0  0  0  0  0
   24.3100    0.5760   33.0070 C   0  0  0  0  0  0  0  0  0  0  0  0
   24.1390   10.8500   28.4920 H   0  0  0  0  0  0  0  0  0  0  0  0
   22.4850   11.5580   28.6540 H   0  0  0  0  0  0  0  0  0  0  0  0
   22.7380    9.7830   28.9080 H   0  0  0  0  0  0  0  0  0  0  0  0
   23.8780   12.0640   30.7170 H   0  0  0  0  0  0  0  0  0  0  0  0
   24.1020   10.2450   30.9800 H   0  0  0  0  0  0  0  0  0  0  0  0
   19.5340    6.8560   32.5220 H   0  0  0  0  0  0  0  0  0  0  0  0
   17.9780    8.2100   33.7670 H   0  0  0  0  0  0  0  0  0  0  0  0
   18.0890    9.9670   33.8050 H   0  0  0  0  0  0  0  0  0  0  0  0
   22.7580    6.6850   30.4930 H   0  0  0  0  0  0  0  0  0  0  0  0
   21.4810    3.3060   30.0150 H   0  0  0  0  0  0  0  0  0  0  0  0
   22.1620    4.6850   29.0330 H   0  0  0  0  0  0  0  0  0  0  0  0
   25.4260    7.3910   30.2940 H   0  0  0  0  0  0  0  0  0  0  0  0
   25.9690    6.6440   28.6930 H   0  0  0  0  0  0  0  0  0  0  0  0
   24.4940    7.7430   28.7540 H   0  0  0  0  0  0  0  0  0  0  0  0
   26.6380    5.2740   30.5120 H   0  0  0  0  0  0  0  0  0  0  0  0
   22.8490    2.2070   31.6670 H   0  0  0  0  0  0  0  0  0  0  0  0
   24.8950   -0.1520   33.6180 H   0  0  0  0  0  0  0  0  0  0  0  0
   23.4610    0.9930   33.5900 H   0  0  0  0  0  0  0  0  0  0  0  0
   23.9860    0.1210   32.0460 H   0  0  0  0  0  0  0  0  0  0  0  0
  1  2  1  0  0  0  0
  1 30  1  0  0  0  0
  1 31  1  0  0  0  0
  1 32  1  0  0  0  0
  2  3  1  0  0  0  0
  2 33  1  0  0  0  0
  2 34  1  0  0  0  0
  3  4  1  0  0  0  0
  4 10  2  0  0  0  0
  4  5  1  0  0  0  0
  5  6  2  0  0  0  0
  6  7  1  0  0  0  0
  6 13  1  0  0  0  0
  7  8  2  0  0  0  0
  7 35  1  0  0  0  0
  8  9  1  0  0  0  0
  8 10  1  0  0  0  0
  9 36  1  0  0  0  0
  9 37  1  0  0  0  0
 10 11  1  0  0  0  0
 11 12  3  0  0  0  0
 13 14  1  0  0  0  0
 13 38  1  0  0  0  0
 14 15  2  0  0  0  0
 14 16  1  0  0  0  0
 16 17  1  0  0  0  0
 16 39  1  0  0  0  0
 16 40  1  0  0  0  0
 17 27  2  0  0  0  0
 17 18  1  0  0  0  0
 18 19  1  0  0  0  0
 18 21  2  0  0  0  0
 19 20  1  0  0  0  0
 20 41  1  0  0  0  0
 20 42  1  0  0  0  0
 20 43  1  0  0  0  0
 21 22  1  0  0  0  0
 21 44  1  0  0  0  0
 22 23  1  0  0  0  0
 22 26  2  0  0  0  0
 23 24  1  0  0  0  0
 23 25  2  0  0  0  0
 26 27  1  0  0  0  0
 26 28  1  0  0  0  0
 27 45  1  0  0  0  0
 28 29  1  0  0  0  0
 29 46  1  0  0  0  0
 29 47  1  0  0  0  0
 29 48  1  0  0  0  0
M  CHG  2  23   1  24  -1
M  END
$$$$
