p38a_2u
 OpenBabel02232411163D
Structure written by MMmdl.
 64 68  0  0  0  0  0  0  0  0999 V2000
   38.2680   36.5130   17.2010 C   0  0  0  0  0  0  0  0  0  0  0  0
   34.5420   35.1290   21.3330 C   0  0  0  0  0  0  0  0  0  0  0  0
   37.4990   36.0710   18.2740 C   0  0  0  0  0  0  0  0  0  0  0  0
   34.0180   39.2800   23.7700 C   0  0  0  0  0  0  0  0  0  0  0  0
   34.6440   38.0140   21.4010 C   0  0  0  0  0  0  0  0  0  0  0  0
   35.0460   37.3240   20.2060 C   0  0  0  0  0  0  0  0  0  0  0  0
   37.6040   36.6480   15.9740 C   0  0  0  0  0  0  0  0  0  0  0  0
   36.2540   36.3380   15.7900 C   0  0  0  0  0  0  0  0  0  0  0  0
   35.5070   35.8840   16.8820 C   0  0  0  0  0  0  0  0  0  0  0  0
   34.2560   37.2700   22.5530 C   0  0  0  0  0  0  0  0  0  0  0  0
   34.6350   39.4300   21.5160 C   0  0  0  0  0  0  0  0  0  0  0  0
   35.0330   35.9720   20.2040 C   0  0  0  0  0  0  0  0  0  0  0  0
   36.1360   35.7400   18.1220 C   0  0  0  0  0  0  0  0  0  0  0  0
   38.0480   35.9570   19.4770 F   0  0  0  0  0  0  0  0  0  0  0  0
   35.4350   35.1280   19.1710 O   0  0  0  0  0  0  0  0  0  0  0  0
   34.3400   40.0770   22.6550 N   0  0  0  0  0  0  0  0  0  0  0  0
   34.4530   33.9220   21.2960 O   0  0  0  0  0  0  0  0  0  0  0  0
   34.1560   35.8630   22.5100 N   0  0  0  0  0  0  0  0  0  0  0  0
   33.9730   37.9010   23.7370 N   0  0  0  0  0  0  0  0  0  0  0  0
   33.6720   39.9160   24.9420 N   0  0  0  0  0  0  0  0  0  0  0  0
   39.3220   36.7790   17.3180 H   0  0  0  0  0  0  0  0  0  0  0  0
   35.3610   37.9200   19.3470 H   0  0  0  0  0  0  0  0  0  0  0  0
   35.7720   36.4610   14.8170 H   0  0  0  0  0  0  0  0  0  0  0  0
   34.4420   35.6630   16.7600 H   0  0  0  0  0  0  0  0  0  0  0  0
   34.8760   40.0500   20.6360 H   0  0  0  0  0  0  0  0  0  0  0  0
   33.8230   40.9370   25.0420 H   0  0  0  0  0  0  0  0  0  0  0  0
   38.2880   37.1340   14.9410 F   0  0  0  0  0  0  0  0  0  0  0  0
   32.3800   39.2980   28.4850 C   0  0  0  0  0  0  0  0  0  0  0  0
   32.5160   39.9790   27.1170 C   0  0  0  0  0  0  0  0  0  0  0  0
   33.4700   39.1640   26.2190 C   0  0  0  0  0  0  0  0  0  0  0  0
   34.8180   38.9260   26.9370 C   0  0  0  0  0  0  0  0  0  0  0  0
   34.5660   38.3010   28.3140 C   0  0  0  0  0  0  0  0  0  0  0  0
   33.6710   39.1110   29.1110 O   0  0  0  0  0  0  0  0  0  0  0  0
   31.8750   38.3090   28.3900 H   0  0  0  0  0  0  0  0  0  0  0  0
   31.8560   39.9560   29.2150 H   0  0  0  0  0  0  0  0  0  0  0  0
   32.9100   41.0120   27.2600 H   0  0  0  0  0  0  0  0  0  0  0  0
   31.5150   40.0460   26.6290 H   0  0  0  0  0  0  0  0  0  0  0  0
   32.9920   38.1710   25.9840 H   0  0  0  0  0  0  0  0  0  0  0  0
   35.4480   38.2310   26.3320 H   0  0  0  0  0  0  0  0  0  0  0  0
   35.3620   39.8930   27.0520 H   0  0  0  0  0  0  0  0  0  0  0  0
   34.1320   37.2780   28.2130 H   0  0  0  0  0  0  0  0  0  0  0  0
   35.4920   38.2910   28.9330 H   0  0  0  0  0  0  0  0  0  0  0  0
   34.1980   33.8580   25.8060 C   0  0  0  0  0  0  0  0  0  0  0  0
   34.7810   34.4380   24.4990 C   0  0  0  0  0  0  0  0  0  0  0  0
   33.6420   35.1500   23.7400 C   0  0  0  0  0  0  0  0  0  0  0  0
   32.5260   34.1430   23.4050 C   0  0  0  0  0  0  0  0  0  0  0  0
   31.9790   33.5650   24.7250 C   0  0  0  0  0  0  0  0  0  0  0  0
   33.8580   34.7180   26.4540 H   0  0  0  0  0  0  0  0  0  0  0  0
   35.0110   33.3040   26.3390 H   0  0  0  0  0  0  0  0  0  0  0  0
   35.2160   33.6190   23.8830 H   0  0  0  0  0  0  0  0  0  0  0  0
   35.5780   35.1720   24.7640 H   0  0  0  0  0  0  0  0  0  0  0  0
   33.1960   35.9320   24.4280 H   0  0  0  0  0  0  0  0  0  0  0  0
   31.6900   34.6550   22.8720 H   0  0  0  0  0  0  0  0  0  0  0  0
   32.9180   33.3140   22.7670 H   0  0  0  0  0  0  0  0  0  0  0  0
   31.4900   34.3980   25.3060 H   0  0  0  0  0  0  0  0  0  0  0  0
   31.2050   32.7920   24.4730 H   0  0  0  0  0  0  0  0  0  0  0  0
   33.0650   32.9180   25.5290 N   0  0  0  0  0  0  0  0  0  0  0  0
   32.5230   31.9810   26.8840 S   0  0  0  0  0  0  0  0  0  0  0  0
   33.6700   31.1650   27.3140 O   0  0  0  0  0  0  0  0  0  0  0  0
   31.3820   31.1620   26.4340 O   0  0  0  0  0  0  0  0  0  0  0  0
   32.0490   33.0910   28.1270 C   0  0  0  0  0  0  0  0  0  0  0  0
   32.9140   33.6530   28.5700 H   0  0  0  0  0  0  0  0  0  0  0  0
   31.3300   33.8750   27.7680 H   0  0  0  0  0  0  0  0  0  0  0  0
   31.5420   32.5820   28.9900 H   0  0  0  0  0  0  0  0  0  0  0  0
  1  3  2  0  0  0  0
  1  7  1  0  0  0  0
  1 21  1  0  0  0  0
  2 12  1  0  0  0  0
  2 17  2  0  0  0  0
  2 18  1  0  0  0  0
  3 13  1  0  0  0  0
  3 14  1  0  0  0  0
  4 16  2  0  0  0  0
  4 19  1  0  0  0  0
  4 20  1  0  0  0  0
  5  6  1  0  0  0  0
  5 10  1  0  0  0  0
  5 11  2  0  0  0  0
  6 12  2  0  0  0  0
  6 22  1  0  0  0  0
  7  8  2  0  0  0  0
  7 27  1  0  0  0  0
  8  9  1  0  0  0  0
  8 23  1  0  0  0  0
  9 13  2  0  0  0  0
  9 24  1  0  0  0  0
 10 18  1  0  0  0  0
 10 19  2  0  0  0  0
 11 16  1  0  0  0  0
 11 25  1  0  0  0  0
 12 15  1  0  0  0  0
 13 15  1  0  0  0  0
 18 45  1  0  0  0  0
 20 26  1  0  0  0  0
 20 30  1  0  0  0  0
 28 29  1  0  0  0  0
 28 33  1  0  0  0  0
 28 34  1  0  0  0  0
 28 35  1  0  0  0  0
 29 30  1  0  0  0  0
 29 36  1  0  0  0  0
 29 37  1  0  0  0  0
 30 31  1  0  0  0  0
 30 38  1  0  0  0  0
 31 32  1  0  0  0  0
 31 39  1  0  0  0  0
 31 40  1  0  0  0  0
 32 33  1  0  0  0  0
 32 41  1  0  0  0  0
 32 42  1  0  0  0  0
 43 44  1  0  0  0  0
 43 48  1  0  0  0  0
 43 49  1  0  0  0  0
 43 57  1  0  0  0  0
 44 45  1  0  0  0  0
 44 50  1  0  0  0  0
 44 51  1  0  0  0  0
 45 46  1  0  0  0  0
 45 52  1  0  0  0  0
 46 47  1  0  0  0  0
 46 53  1  0  0  0  0
 46 54  1  0  0  0  0
 47 55  1  0  0  0  0
 47 56  1  0  0  0  0
 47 57  1  0  0  0  0
 57 58  1  0  0  0  0
 58 59  2  0  0  0  0
 58 60  2  0  0  0  0
 58 61  1  0  0  0  0
 61 62  1  0  0  0  0
 61 63  1  0  0  0  0
 61 64  1  0  0  0  0
M  END
$$$$
