p38a_2f
 OpenBabel02232411163D
Structure written by MMmdl.
 46 49  0  0  0  0  0  0  0  0999 V2000
   32.5130   39.7700   27.3830 C   0  0  0  0  0  0  0  0  0  0  0  0
   33.4130   40.6250   28.2860 C   0  0  0  0  0  0  0  0  0  0  0  0
   35.3030   39.1740   27.9680 C   0  0  0  0  0  0  0  0  0  0  0  0
   34.4970   38.1890   27.1210 C   0  0  0  0  0  0  0  0  0  0  0  0
   37.9270   36.1900   17.2440 C   0  0  0  0  0  0  0  0  0  0  0  0
   34.4530   39.8540   28.9220 O   0  0  0  0  0  0  0  0  0  0  0  0
   34.3450   35.0460   21.3480 C   0  0  0  0  0  0  0  0  0  0  0  0
   37.1340   35.8770   18.3520 C   0  0  0  0  0  0  0  0  0  0  0  0
   34.0230   39.0710   24.0200 C   0  0  0  0  0  0  0  0  0  0  0  0
   33.2980   38.8590   26.4180 C   0  0  0  0  0  0  0  0  0  0  0  0
   34.5990   37.9120   21.5820 C   0  0  0  0  0  0  0  0  0  0  0  0
   34.8890   37.2780   20.3260 C   0  0  0  0  0  0  0  0  0  0  0  0
   37.4250   36.3030   15.9450 C   0  0  0  0  0  0  0  0  0  0  0  0
   36.0580   36.0810   15.7430 C   0  0  0  0  0  0  0  0  0  0  0  0
   35.2220   35.7450   16.8110 C   0  0  0  0  0  0  0  0  0  0  0  0
   34.1960   37.1250   22.7030 C   0  0  0  0  0  0  0  0  0  0  0  0
   34.6730   39.3180   21.7790 C   0  0  0  0  0  0  0  0  0  0  0  0
   34.7710   35.9320   20.2340 C   0  0  0  0  0  0  0  0  0  0  0  0
   35.7780   35.6510   18.0920 C   0  0  0  0  0  0  0  0  0  0  0  0
   33.6590   34.9410   23.7770 C   0  0  0  0  0  0  0  0  0  0  0  0
   37.5450   35.8420   19.3610 H   0  0  0  0  0  0  0  0  0  0  0  0
   34.9100   35.1670   19.0810 O   0  0  0  0  0  0  0  0  0  0  0  0
   34.4020   39.9110   22.9500 N   0  0  0  0  0  0  0  0  0  0  0  0
   34.2110   33.8440   21.2830 O   0  0  0  0  0  0  0  0  0  0  0  0
   34.0790   35.7310   22.5860 N   0  0  0  0  0  0  0  0  0  0  0  0
   33.9130   37.6960   23.9160 N   0  0  0  0  0  0  0  0  0  0  0  0
   33.7310   39.6580   25.2250 N   0  0  0  0  0  0  0  0  0  0  0  0
   31.8660   39.1120   28.0150 H   0  0  0  0  0  0  0  0  0  0  0  0
   31.8440   40.4490   26.7990 H   0  0  0  0  0  0  0  0  0  0  0  0
   33.8880   41.4470   27.7060 H   0  0  0  0  0  0  0  0  0  0  0  0
   32.8400   41.0220   29.1560 H   0  0  0  0  0  0  0  0  0  0  0  0
   36.0240   38.6470   28.6330 H   0  0  0  0  0  0  0  0  0  0  0  0
   35.8060   39.9350   27.3300 H   0  0  0  0  0  0  0  0  0  0  0  0
   35.1660   37.7070   26.3680 H   0  0  0  0  0  0  0  0  0  0  0  0
   34.0900   37.3730   27.7730 H   0  0  0  0  0  0  0  0  0  0  0  0
   39.2280   36.3910   17.4410 F   0  0  0  0  0  0  0  0  0  0  0  0
   32.6000   38.0480   26.0520 H   0  0  0  0  0  0  0  0  0  0  0  0
   35.1940   37.9070   19.4840 H   0  0  0  0  0  0  0  0  0  0  0  0
   35.6330   36.1880   14.7430 H   0  0  0  0  0  0  0  0  0  0  0  0
   34.1540   35.5890   16.6440 H   0  0  0  0  0  0  0  0  0  0  0  0
   34.9590   39.9710   20.9370 H   0  0  0  0  0  0  0  0  0  0  0  0
   34.3600   35.1380   24.6340 H   0  0  0  0  0  0  0  0  0  0  0  0
   32.6240   35.2430   24.0930 H   0  0  0  0  0  0  0  0  0  0  0  0
   33.6680   33.8460   23.5410 H   0  0  0  0  0  0  0  0  0  0  0  0
   33.8150   40.6860   25.3360 H   0  0  0  0  0  0  0  0  0  0  0  0
   38.0610   36.5810   15.1070 H   0  0  0  0  0  0  0  0  0  0  0  0
  1  2  1  0  0  0  0
  1 10  1  0  0  0  0
  1 28  1  0  0  0  0
  1 29  1  0  0  0  0
  2  6  1  0  0  0  0
  2 30  1  0  0  0  0
  2 31  1  0  0  0  0
  3  4  1  0  0  0  0
  3  6  1  0  0  0  0
  3 32  1  0  0  0  0
  3 33  1  0  0  0  0
  4 10  1  0  0  0  0
  4 34  1  0  0  0  0
  4 35  1  0  0  0  0
  5  8  2  0  0  0  0
  5 13  1  0  0  0  0
  5 36  1  0  0  0  0
  7 18  1  0  0  0  0
  7 24  2  0  0  0  0
  7 25  1  0  0  0  0
  8 19  1  0  0  0  0
  8 21  1  0  0  0  0
  9 23  2  0  0  0  0
  9 26  1  0  0  0  0
  9 27  1  0  0  0  0
 10 27  1  0  0  0  0
 10 37  1  0  0  0  0
 11 12  1  0  0  0  0
 11 16  1  0  0  0  0
 11 17  2  0  0  0  0
 12 18  2  0  0  0  0
 12 38  1  0  0  0  0
 13 14  2  0  0  0  0
 13 46  1  0  0  0  0
 14 15  1  0  0  0  0
 14 39  1  0  0  0  0
 15 19  2  0  0  0  0
 15 40  1  0  0  0  0
 16 25  1  0  0  0  0
 16 26  2  0  0  0  0
 17 23  1  0  0  0  0
 17 41  1  0  0  0  0
 18 22  1  0  0  0  0
 19 22  1  0  0  0  0
 20 25  1  0  0  0  0
 20 42  1  0  0  0  0
 20 43  1  0  0  0  0
 20 44  1  0  0  0  0
 27 45  1  0  0  0  0
M  END
$$$$
