18660-1
 OpenBabel02232411163D
Structure written by MMmdl.
 52 53  0  0  0  0  0  0  0  0999 V2000
   24.8190   14.0160   27.8070 C   0  0  0  0  0  0  0  0  0  0  0  0
   25.1270   12.5780   28.7240 S   0  0  0  0  0  0  0  0  0  0  0  0
   26.1030   12.8820   29.7800 O   0  0  0  0  0  0  0  0  0  0  0  0
   25.5500   11.4770   27.8510 O   0  0  0  0  0  0  0  0  0  0  0  0
   23.5720   12.2550   29.5000 C   0  0  0  0  0  0  0  0  0  0  0  0
   23.4160   10.8580   30.0770 C   0  0  0  0  0  0  0  0  0  0  0  0
   22.3280   11.0310   31.0840 O   0  0  0  0  0  0  0  0  0  0  0  0
   21.6520    9.9250   31.4810 C   0  0  0  0  0  0  0  0  0  0  0  0
   22.0890    8.7190   31.0550 N   0  0  0  0  0  0  0  0  0  0  0  0
   21.3450    7.6030   31.4160 C   0  0  0  0  0  0  0  0  0  0  0  0
   20.2040    7.6910   32.2090 C   0  0  0  0  0  0  0  0  0  0  0  0
   19.7650    8.9600   32.6700 C   0  0  0  0  0  0  0  0  0  0  0  0
   18.6270    9.0530   33.4310 N   0  0  0  0  0  0  0  0  0  0  0  0
   20.5130   10.1310   32.3120 C   0  0  0  0  0  0  0  0  0  0  0  0
   20.1560   11.4360   32.7080 C   0  0  0  0  0  0  0  0  0  0  0  0
   19.9020   12.5260   33.0160 N   0  0  0  0  0  0  0  0  0  0  0  0
   21.8820    6.4180   30.8720 N   0  0  0  0  0  0  0  0  0  0  0  0
   21.2650    5.1430   30.8740 C   0  0  0  0  0  0  0  0  0  0  0  0
   20.1960    4.9430   31.4080 O   0  0  0  0  0  0  0  0  0  0  0  0
   22.0310    4.0940   30.0840 C   0  0  0  0  0  0  0  0  0  0  0  0
   23.3400    3.7270   30.7200 C   0  0  0  0  0  0  0  0  0  0  0  0
   24.5100    4.4900   30.4380 C   0  0  0  0  0  0  0  0  0  0  0  0
   24.2730    5.5270   29.5430 O   0  0  0  0  0  0  0  0  0  0  0  0
   25.3590    6.4620   29.3050 C   0  0  0  0  0  0  0  0  0  0  0  0
   25.7410    4.1780   31.0070 C   0  0  0  0  0  0  0  0  0  0  0  0
   25.8400    3.0940   31.8900 C   0  0  0  0  0  0  0  0  0  0  0  0
   24.7010    2.3390   32.1660 C   0  0  0  0  0  0  0  0  0  0  0  0
   23.4490    2.6380   31.5730 C   0  0  0  0  0  0  0  0  0  0  0  0
   24.6310    1.2510   33.0120 O   0  0  0  0  0  0  0  0  0  0  0  0
   25.8540    0.8340   33.6700 C   0  0  0  0  0  0  0  0  0  0  0  0
   25.7670   14.5010   27.4430 H   0  0  0  0  0  0  0  0  0  0  0  0
   24.1850   13.8400   26.9010 H   0  0  0  0  0  0  0  0  0  0  0  0
   24.2790   14.7970   28.4060 H   0  0  0  0  0  0  0  0  0  0  0  0
   23.3800   13.0150   30.3150 H   0  0  0  0  0  0  0  0  0  0  0  0
   22.7430   12.4290   28.7480 H   0  0  0  0  0  0  0  0  0  0  0  0
   24.2930   10.4930   30.6550 H   0  0  0  0  0  0  0  0  0  0  0  0
   23.0760   10.1270   29.3050 H   0  0  0  0  0  0  0  0  0  0  0  0
   19.6260    6.8000   32.4690 H   0  0  0  0  0  0  0  0  0  0  0  0
   18.2660    9.9580   33.7350 H   0  0  0  0  0  0  0  0  0  0  0  0
   18.0930    8.2070   33.7070 H   0  0  0  0  0  0  0  0  0  0  0  0
   22.8060    6.5220   30.3830 H   0  0  0  0  0  0  0  0  0  0  0  0
   21.3900    3.1800   29.9890 H   0  0  0  0  0  0  0  0  0  0  0  0
   22.2240    4.5030   29.0550 H   0  0  0  0  0  0  0  0  0  0  0  0
   26.1880    5.9410   28.7790 H   0  0  0  0  0  0  0  0  0  0  0  0
   24.8640    7.2120   28.6480 H   0  0  0  0  0  0  0  0  0  0  0  0
   25.6910    6.9150   30.2640 H   0  0  0  0  0  0  0  0  0  0  0  0
   26.6430    4.7510   30.7810 H   0  0  0  0  0  0  0  0  0  0  0  0
   26.8130    2.8680   32.3320 H   0  0  0  0  0  0  0  0  0  0  0  0
   22.5940    1.9960   31.7970 H   0  0  0  0  0  0  0  0  0  0  0  0
   25.5050   -0.0440   34.2640 H   0  0  0  0  0  0  0  0  0  0  0  0
   26.2320    1.6430   34.3320 H   0  0  0  0  0  0  0  0  0  0  0  0
   26.6130    0.5290   32.9160 H   0  0  0  0  0  0  0  0  0  0  0  0
  1  2  1  0  0  0  0
  1 31  1  0  0  0  0
  1 32  1  0  0  0  0
  1 33  1  0  0  0  0
  2  3  2  0  0  0  0
  2  4  2  0  0  0  0
  2  5  1  0  0  0  0
  5  6  1  0  0  0  0
  5 34  1  0  0  0  0
  5 35  1  0  0  0  0
  6  7  1  0  0  0  0
  6 36  1  0  0  0  0
  6 37  1  0  0  0  0
  7  8  1  0  0  0  0
  8 14  2  0  0  0  0
  8  9  1  0  0  0  0
  9 10  2  0  0  0  0
 10 11  1  0  0  0  0
 10 17  1  0  0  0  0
 11 12  2  0  0  0  0
 11 38  1  0  0  0  0
 12 13  1  0  0  0  0
 12 14  1  0  0  0  0
 13 39  1  0  0  0  0
 13 40  1  0  0  0  0
 14 15  1  0  0  0  0
 15 16  3  0  0  0  0
 17 18  1  0  0  0  0
 17 41  1  0  0  0  0
 18 19  2  0  0  0  0
 18 20  1  0  0  0  0
 20 21  1  0  0  0  0
 20 42  1  0  0  0  0
 20 43  1  0  0  0  0
 21 28  2  0  0  0  0
 21 22  1  0  0  0  0
 22 23  1  0  0  0  0
 22 25  2  0  0  0  0
 23 24  1  0  0  0  0
 24 44  1  0  0  0  0
 24 45  1  0  0  0  0
 24 46  1  0  0  0  0
 25 26  1  0  0  0  0
 25 47  1  0  0  0  0
 26 27  2  0  0  0  0
 26 48  1  0  0  0  0
 27 28  1  0  0  0  0
 27 29  1  0  0  0  0
 28 49  1  0  0  0  0
 29 30  1  0  0  0  0
 30 50  1  0  0  0  0
 30 51  1  0  0  0  0
 30 52  1  0  0  0  0
M  END
$$$$
