p38a_3fmh
 OpenBabel02232411163D
Structure written by MMmdl.
 46 49  0  0  1  0  0  0  0  0999 V2000
   38.2820   37.2780   14.7320 F   0  0  0  0  0  0  0  0  0  0  0  0
   37.7090   36.6980   15.7830 C   0  0  0  0  0  0  0  0  0  0  0  0
   38.4010   36.6780   16.9970 C   0  0  0  0  0  0  0  0  0  0  0  0
   37.7660   36.1570   18.1300 C   0  0  0  0  0  0  0  0  0  0  0  0
   36.4210   36.1720   15.6190 C   0  0  0  0  0  0  0  0  0  0  0  0
   35.8270   35.6220   16.7500 C   0  0  0  0  0  0  0  0  0  0  0  0
   34.6240   35.0670   16.6800 F   0  0  0  0  0  0  0  0  0  0  0  0
   36.4810   35.6280   17.9990 C   0  0  0  0  0  0  0  0  0  0  0  0
   35.8230   34.9530   19.0360 O   0  0  0  0  0  0  0  0  0  0  0  0
   35.2930   35.7600   20.0370 C   0  0  0  0  0  0  0  0  0  0  0  0
   34.5580   34.8780   20.9860 C   0  0  0  0  0  0  0  0  0  0  0  0
   34.3720   33.6910   20.8330 O   0  0  0  0  0  0  0  0  0  0  0  0
   34.0550   35.5470   22.1540 N   0  0  0  0  0  0  0  0  0  0  0  0
   33.3700   34.7510   23.2120 C   0  0  0  0  0  0  0  0  0  0  0  0
   34.2010   36.9310   22.3350 C   0  0  0  0  0  0  0  0  0  0  0  0
   33.7270   37.4850   23.4980 N   0  0  0  0  0  0  0  0  0  0  0  0
   35.3950   37.1030   20.1680 C   0  0  0  0  0  0  0  0  0  0  0  0
   34.8290   37.7290   21.3320 C   0  0  0  0  0  0  0  0  0  0  0  0
   34.8830   39.1280   21.5650 C   0  0  0  0  0  0  0  0  0  0  0  0
   34.4330   39.7010   22.6950 N   0  0  0  0  0  0  0  0  0  0  0  0
   33.8850   38.8450   23.6650 C   0  0  0  0  0  0  0  0  0  0  0  0
   33.5260   39.3980   24.8810 N   0  0  0  0  0  0  0  0  0  0  0  0
   32.5950   38.6890   25.8100 C   0  0  2  0  0  0  0  0  0  0  0  0
   31.6160   39.6990   26.4040 C   0  0  0  0  0  0  0  0  0  0  0  0
   33.4720   38.0040   26.9040 C   0  0  0  0  0  0  0  0  0  0  0  0
   32.6310   37.2910   27.8940 N   0  0  0  0  0  0  0  0  0  0  0  0
   31.6160   36.4490   27.5590 N   0  0  0  0  0  0  0  0  0  0  0  0
   31.0870   36.0630   28.7550 C   0  0  0  0  0  0  0  0  0  0  0  0
   31.8170   36.6840   29.8030 N   0  0  0  0  0  0  0  0  0  0  0  0
   32.7330   37.4220   29.2570 N   0  0  0  0  0  0  0  0  0  0  0  0
   39.4090   37.0910   17.0810 H   0  0  0  0  0  0  0  0  0  0  0  0
   38.2710   36.1960   19.0990 H   0  0  0  0  0  0  0  0  0  0  0  0
   35.9030   36.2110   14.6590 H   0  0  0  0  0  0  0  0  0  0  0  0
   33.9290   34.8510   24.1830 H   0  0  0  0  0  0  0  0  0  0  0  0
   32.3250   35.1370   23.3630 H   0  0  0  0  0  0  0  0  0  0  0  0
   33.3270   33.6710   22.9200 H   0  0  0  0  0  0  0  0  0  0  0  0
   35.9020   37.7390   19.4390 H   0  0  0  0  0  0  0  0  0  0  0  0
   35.3010   39.8000   20.7970 H   0  0  0  0  0  0  0  0  0  0  0  0
   33.6040   40.4260   25.0150 H   0  0  0  0  0  0  0  0  0  0  0  0
   32.0240   37.8910   25.2500 H   0  0  0  0  0  0  0  0  0  0  0  0
   30.8140   39.1690   26.9630 H   0  0  0  0  0  0  0  0  0  0  0  0
   32.1380   40.4080   27.0870 H   0  0  0  0  0  0  0  0  0  0  0  0
   31.1400   40.2880   25.5840 H   0  0  0  0  0  0  0  0  0  0  0  0
   34.1650   37.2620   26.4120 H   0  0  0  0  0  0  0  0  0  0  0  0
   34.0920   38.7760   27.4420 H   0  0  0  0  0  0  0  0  0  0  0  0
   30.2360   35.3970   28.8950 H   0  0  0  0  0  0  0  0  0  0  0  0
  1  2  1  0  0  0  0
  2  3  2  0  0  0  0
  2  5  1  0  0  0  0
  3  4  1  0  0  0  0
  3 31  1  0  0  0  0
  4  8  2  0  0  0  0
  4 32  1  0  0  0  0
  5  6  2  0  0  0  0
  5 33  1  0  0  0  0
  6  7  1  0  0  0  0
  6  8  1  0  0  0  0
  8  9  1  0  0  0  0
  9 10  1  0  0  0  0
 10 11  1  0  0  0  0
 10 17  2  0  0  0  0
 11 12  2  0  0  0  0
 11 13  1  0  0  0  0
 13 14  1  0  0  0  0
 13 15  1  0  0  0  0
 14 34  1  0  0  0  0
 14 35  1  0  0  0  0
 14 36  1  0  0  0  0
 15 16  2  0  0  0  0
 15 18  1  0  0  0  0
 16 21  1  0  0  0  0
 17 18  1  0  0  0  0
 17 37  1  0  0  0  0
 18 19  2  0  0  0  0
 19 20  1  0  0  0  0
 19 38  1  0  0  0  0
 20 21  2  0  0  0  0
 21 22  1  0  0  0  0
 22 23  1  0  0  0  0
 22 39  1  0  0  0  0
 23 24  1  0  0  0  0
 23 25  1  0  0  0  0
 23 40  1  6  0  0  0
 24 41  1  0  0  0  0
 24 42  1  0  0  0  0
 24 43  1  0  0  0  0
 25 26  1  0  0  0  0
 25 44  1  0  0  0  0
 25 45  1  0  0  0  0
 26 27  1  0  0  0  0
 26 30  1  0  0  0  0
 27 28  2  0  0  0  0
 28 29  1  0  0  0  0
 28 46  1  0  0  0  0
 29 30  2  0  0  0  0
M  END
$$$$
