18624-1
 OpenBabel02232411163D
Structure written by MMmdl.
 38 39  0  0  0  0  0  0  0  0999 V2000
   23.2200   10.8660   29.0600 C   0  0  0  0  0  0  0  0  0  0  0  0
   23.4870   11.0810   30.5340 C   0  0  0  0  0  0  0  0  0  0  0  0
   22.2170   11.1510   31.2870 O   0  0  0  0  0  0  0  0  0  0  0  0
   21.5710   10.0110   31.6160 C   0  0  0  0  0  0  0  0  0  0  0  0
   22.0430    8.8220   31.1780 N   0  0  0  0  0  0  0  0  0  0  0  0
   21.3100    7.6860   31.4870 C   0  0  0  0  0  0  0  0  0  0  0  0
   20.1510    7.7250   32.2550 C   0  0  0  0  0  0  0  0  0  0  0  0
   19.6710    8.9770   32.7260 C   0  0  0  0  0  0  0  0  0  0  0  0
   18.5170    9.0270   33.4660 N   0  0  0  0  0  0  0  0  0  0  0  0
   20.3900   10.1720   32.4000 C   0  0  0  0  0  0  0  0  0  0  0  0
   19.9890   11.4720   32.7750 C   0  0  0  0  0  0  0  0  0  0  0  0
   19.7100   12.5660   33.0420 N   0  0  0  0  0  0  0  0  0  0  0  0
   21.8820    6.5290   30.9060 N   0  0  0  0  0  0  0  0  0  0  0  0
   21.3230    5.2270   30.8680 C   0  0  0  0  0  0  0  0  0  0  0  0
   20.2780    4.9530   31.4170 O   0  0  0  0  0  0  0  0  0  0  0  0
   22.1320    4.2510   30.0280 C   0  0  0  0  0  0  0  0  0  0  0  0
   23.4380    3.8800   30.6800 C   0  0  0  0  0  0  0  0  0  0  0  0
   24.5980    4.6260   30.4190 C   0  0  0  0  0  0  0  0  0  0  0  0
   25.8010    4.2970   31.0490 C   0  0  0  0  0  0  0  0  0  0  0  0
   25.8590    3.2180   31.9360 C   0  0  0  0  0  0  0  0  0  0  0  0
   24.7120    2.4570   32.1780 C   0  0  0  0  0  0  0  0  0  0  0  0
   23.5060    2.7800   31.5480 C   0  0  0  0  0  0  0  0  0  0  0  0
   22.8620    9.8280   28.8580 H   0  0  0  0  0  0  0  0  0  0  0  0
   22.4640   11.5860   28.6750 H   0  0  0  0  0  0  0  0  0  0  0  0
   24.1680   11.0200   28.4860 H   0  0  0  0  0  0  0  0  0  0  0  0
   23.8760   12.1060   30.7470 H   0  0  0  0  0  0  0  0  0  0  0  0
   24.1340   10.2860   30.9670 H   0  0  0  0  0  0  0  0  0  0  0  0
   19.5950    6.8150   32.4870 H   0  0  0  0  0  0  0  0  0  0  0  0
   18.0190    8.1600   33.7450 H   0  0  0  0  0  0  0  0  0  0  0  0
   18.1260    9.9150   33.7820 H   0  0  0  0  0  0  0  0  0  0  0  0
   22.7840    6.6900   30.4160 H   0  0  0  0  0  0  0  0  0  0  0  0
   21.5170    3.3270   29.8670 H   0  0  0  0  0  0  0  0  0  0  0  0
   22.3270    4.7140   29.0250 H   0  0  0  0  0  0  0  0  0  0  0  0
   24.5830    5.4630   29.7170 H   0  0  0  0  0  0  0  0  0  0  0  0
   26.7000    4.8860   30.8440 H   0  0  0  0  0  0  0  0  0  0  0  0
   26.8010    2.9660   32.4310 H   0  0  0  0  0  0  0  0  0  0  0  0
   24.7590    1.6020   32.8600 H   0  0  0  0  0  0  0  0  0  0  0  0
   22.6260    2.1610   31.7340 H   0  0  0  0  0  0  0  0  0  0  0  0
  1  2  1  0  0  0  0
  1 23  1  0  0  0  0
  1 24  1  0  0  0  0
  1 25  1  0  0  0  0
  2  3  1  0  0  0  0
  2 26  1  0  0  0  0
  2 27  1  0  0  0  0
  3  4  1  0  0  0  0
  4 10  2  0  0  0  0
  4  5  1  0  0  0  0
  5  6  2  0  0  0  0
  6  7  1  0  0  0  0
  6 13  1  0  0  0  0
  7  8  2  0  0  0  0
  7 28  1  0  0  0  0
  8  9  1  0  0  0  0
  8 10  1  0  0  0  0
  9 29  1  0  0  0  0
  9 30  1  0  0  0  0
 10 11  1  0  0  0  0
 11 12  3  0  0  0  0
 13 14  1  0  0  0  0
 13 31  1  0  0  0  0
 14 15  2  0  0  0  0
 14 16  1  0  0  0  0
 16 17  1  0  0  0  0
 16 32  1  0  0  0  0
 16 33  1  0  0  0  0
 17 22  2  0  0  0  0
 17 18  1  0  0  0  0
 18 19  2  0  0  0  0
 18 34  1  0  0  0  0
 19 20  1  0  0  0  0
 19 35  1  0  0  0  0
 20 21  2  0  0  0  0
 20 36  1  0  0  0  0
 21 22  1  0  0  0  0
 21 37  1  0  0  0  0
 22 38  1  0  0  0  0
M  END
$$$$
