54 flip
                    3D
 Schrodinger Suite 2022-3.
 44 47  0  0  1  0  0  0  0  0999 V2000
    3.3710  -47.8410    7.3520 O   0  0  0  0  0  0  0  0  0  0  0  0
    3.1200  -48.8920    6.7490 C   0  0  0  0  0  0  0  0  0  0  0  0
    3.9330  -49.7370    6.3290 O   0  5  0  0  0  0  0  0  0  0  0  0
    1.6380  -49.2150    6.5000 C   0  0  0  0  0  0  0  0  0  0  0  0
   -0.2070  -50.5580    6.4770 C   0  0  0  0  0  0  0  0  0  0  0  0
   -1.1350  -51.6060    6.6030 C   0  0  0  0  0  0  0  0  0  0  0  0
   -2.4240  -51.3000    6.2130 C   0  0  0  0  0  0  0  0  0  0  0  0
   -2.8400  -50.0510    5.7120 C   0  0  0  0  0  0  0  0  0  0  0  0
   -1.9160  -49.0220    5.5940 C   0  0  0  0  0  0  0  0  0  0  0  0
   -0.5870  -49.2560    5.9810 C   0  0  0  0  0  0  0  0  0  0  0  0
    0.5990  -48.4300    6.0210 C   0  0  0  0  0  0  0  0  0  0  0  0
    0.5980  -46.9970    5.6300 C   0  0  0  0  0  0  0  0  0  0  0  0
    0.3240  -46.0660    6.8260 C   0  0  0  0  0  0  0  0  0  0  0  0
   -1.0420  -46.2720    7.4830 C   0  0  0  0  0  0  0  0  0  0  0  0
   -2.0170  -45.9260    6.4400 O   0  0  0  0  0  0  0  0  0  0  0  0
   -3.2500  -45.4240    6.7500 C   0  0  0  0  0  0  0  0  0  0  0  0
   -5.7870  -44.2260    6.9820 C   0  0  0  0  0  0  0  0  0  0  0  0
   -5.0000  -43.9720    5.8840 C   0  0  0  0  0  0  0  0  0  0  0  0
   -3.7210  -44.5570    5.7710 C   0  0  0  0  0  0  0  0  0  0  0  0
   -0.8560  -52.5890    6.9840 H   0  0  0  0  0  0  0  0  0  0  0  0
   -3.6290  -52.5500    6.3150 Cl  0  0  0  0  0  0  0  0  0  0  0  0
   -3.8810  -49.9030    5.4230 H   0  0  0  0  0  0  0  0  0  0  0  0
   -2.2280  -48.0440    5.2170 H   0  0  0  0  0  0  0  0  0  0  0  0
   -0.2120  -46.8380    4.8740 H   0  0  0  0  0  0  0  0  0  0  0  0
    1.5750  -46.7080    5.1730 H   0  0  0  0  0  0  0  0  0  0  0  0
    0.3950  -45.0100    6.4820 H   0  0  0  0  0  0  0  0  0  0  0  0
    1.0920  -46.2620    7.6120 H   0  0  0  0  0  0  0  0  0  0  0  0
   -1.1900  -45.5970    8.3500 H   0  0  0  0  0  0  0  0  0  0  0  0
   -1.2190  -47.3460    7.7110 H   0  0  0  0  0  0  0  0  0  0  0  0
   -3.1100  -44.3210    4.9080 H   0  0  0  0  0  0  0  0  0  0  0  0
   -5.3310  -45.1170    7.9990 C   0  0  0  0  0  0  0  0  0  0  0  0
   -4.0700  -45.7740    7.8840 C   0  0  0  0  0  0  0  0  0  0  0  0
   -3.7510  -46.7780    8.8490 C   0  0  0  0  0  0  0  0  0  0  0  0
   -4.5860  -47.0460    9.9050 C   0  0  0  0  0  0  0  0  0  0  0  0
   -5.8020  -46.3240   10.0590 C   0  0  0  0  0  0  0  0  0  0  0  0
   -6.1700  -45.3900    9.1270 C   0  0  0  0  0  0  0  0  0  0  0  0
   -2.8550  -47.3860    8.7330 H   0  0  0  0  0  0  0  0  0  0  0  0
   -4.3500  -47.8280   10.6250 H   0  0  0  0  0  0  0  0  0  0  0  0
   -6.4480  -46.5440   10.9070 H   0  0  0  0  0  0  0  0  0  0  0  0
   -7.1160  -44.8570    9.2170 H   0  0  0  0  0  0  0  0  0  0  0  0
   -5.3480  -43.3080    5.0910 H   0  0  0  0  0  0  0  0  0  0  0  0
   -6.7710  -43.7700    7.0800 H   0  0  0  0  0  0  0  0  0  0  0  0
    1.1560  -50.5100    6.7830 N   0  0  0  0  0  0  0  0  0  0  0  0
    1.6850  -51.3020    7.1300 H   0  0  0  0  0  0  0  0  0  0  0  0
  1  2  2  0  0  0  0
  2  3  1  0  0  0  0
  2  4  1  0  0  0  0
  4 11  2  0  0  0  0
  4 43  1  0  0  0  0
  5  6  1  0  0  0  0
  5 10  2  0  0  0  0
  5 43  1  0  0  0  0
  6  7  2  0  0  0  0
  6 20  1  0  0  0  0
  7  8  1  0  0  0  0
  7 21  1  0  0  0  0
  8  9  2  0  0  0  0
  8 22  1  0  0  0  0
  9 10  1  0  0  0  0
  9 23  1  0  0  0  0
 10 11  1  0  0  0  0
 11 12  1  0  0  0  0
 12 24  1  0  0  0  0
 12 25  1  0  0  0  0
 12 13  1  0  0  0  0
 13 14  1  0  0  0  0
 13 26  1  0  0  0  0
 13 27  1  0  0  0  0
 14 15  1  0  0  0  0
 14 28  1  0  0  0  0
 14 29  1  0  0  0  0
 15 16  1  0  0  0  0
 16 19  2  0  0  0  0
 16 32  1  0  0  0  0
 17 18  2  0  0  0  0
 17 31  1  0  0  0  0
 17 42  1  0  0  0  0
 18 19  1  0  0  0  0
 18 41  1  0  0  0  0
 19 30  1  0  0  0  0
 31 32  2  0  0  0  0
 31 36  1  0  0  0  0
 32 33  1  0  0  0  0
 33 34  2  0  0  0  0
 33 37  1  0  0  0  0
 34 35  1  0  0  0  0
 34 38  1  0  0  0  0
 35 36  2  0  0  0  0
 35 39  1  0  0  0  0
 36 40  1  0  0  0  0
 43 44  1  0  0  0  0
M  CHG  1   3  -1
M  END
$$$$
