18637-1
 OpenBabel02232411163D
Structure written by MMmdl.
 53 54  0  0  0  0  0  0  0  0999 V2000
   23.2180   10.8190   29.0810 C   0  0  0  0  0  0  0  0  0  0  0  0
   23.4850   11.0410   30.5550 C   0  0  0  0  0  0  0  0  0  0  0  0
   22.2160   11.1460   31.3050 O   0  0  0  0  0  0  0  0  0  0  0  0
   21.5500   10.0170   31.6370 C   0  0  0  0  0  0  0  0  0  0  0  0
   22.0020    8.8230   31.1940 N   0  0  0  0  0  0  0  0  0  0  0  0
   21.2460    7.6980   31.4930 C   0  0  0  0  0  0  0  0  0  0  0  0
   20.0910    7.7530   32.2670 C   0  0  0  0  0  0  0  0  0  0  0  0
   19.6380    9.0090   32.7510 C   0  0  0  0  0  0  0  0  0  0  0  0
   18.4950    9.0680   33.5060 N   0  0  0  0  0  0  0  0  0  0  0  0
   20.3720   10.1950   32.4230 C   0  0  0  0  0  0  0  0  0  0  0  0
   19.9850   11.5000   32.7940 C   0  0  0  0  0  0  0  0  0  0  0  0
   19.7170   12.5970   33.0570 N   0  0  0  0  0  0  0  0  0  0  0  0
   21.7940    6.5420   30.9020 N   0  0  0  0  0  0  0  0  0  0  0  0
   21.1910    5.2660   30.8030 C   0  0  0  0  0  0  0  0  0  0  0  0
   20.1080    5.0170   31.2870 O   0  0  0  0  0  0  0  0  0  0  0  0
   22.0060    4.2860   29.9690 C   0  0  0  0  0  0  0  0  0  0  0  0
   23.3380    3.9710   30.5810 C   0  0  0  0  0  0  0  0  0  0  0  0
   24.4590    4.8060   30.3730 C   0  0  0  0  0  0  0  0  0  0  0  0
   24.1950    5.8780   29.5360 O   0  0  0  0  0  0  0  0  0  0  0  0
   25.1750    6.9480   29.4440 C   0  0  0  0  0  0  0  0  0  0  0  0
   25.7070    4.5450   30.9540 C   0  0  0  0  0  0  0  0  0  0  0  0
   25.8680    3.4100   31.7520 C   0  0  0  0  0  0  0  0  0  0  0  0
   24.7420    2.5540   31.9570 C   0  0  0  0  0  0  0  0  0  0  0  0
   23.5060    2.8290   31.3780 C   0  0  0  0  0  0  0  0  0  0  0  0
   25.0040    1.4950   32.8130 O   0  0  0  0  0  0  0  0  0  0  0  0
   24.1530    0.3240   32.6990 C   0  0  0  0  0  0  0  0  0  0  0  0
   27.0960    3.0890   32.3990 N   0  0  0  0  0  0  0  0  0  0  0  0
   28.3870    3.4290   31.9240 C   0  0  0  0  0  0  0  0  0  0  0  0
   28.5290    4.0420   30.8790 O   0  0  0  0  0  0  0  0  0  0  0  0
   29.5080    2.9920   32.8150 C   0  0  0  0  0  0  0  0  0  0  0  0
   22.7940    9.8040   28.8960 H   0  0  0  0  0  0  0  0  0  0  0  0
   22.5140   11.5800   28.6780 H   0  0  0  0  0  0  0  0  0  0  0  0
   24.1800   10.9030   28.5170 H   0  0  0  0  0  0  0  0  0  0  0  0
   23.8970   12.0590   30.7600 H   0  0  0  0  0  0  0  0  0  0  0  0
   24.1140   10.2360   30.9970 H   0  0  0  0  0  0  0  0  0  0  0  0
   19.5180    6.8520   32.4910 H   0  0  0  0  0  0  0  0  0  0  0  0
   18.1160    9.9580   33.8310 H   0  0  0  0  0  0  0  0  0  0  0  0
   17.9900    8.2040   33.7810 H   0  0  0  0  0  0  0  0  0  0  0  0
   22.7170    6.6900   30.4190 H   0  0  0  0  0  0  0  0  0  0  0  0
   21.4130    3.3440   29.8460 H   0  0  0  0  0  0  0  0  0  0  0  0
   22.1650    4.7430   28.9550 H   0  0  0  0  0  0  0  0  0  0  0  0
   25.4110    7.3470   30.4540 H   0  0  0  0  0  0  0  0  0  0  0  0
   26.0760    6.5800   28.9100 H   0  0  0  0  0  0  0  0  0  0  0  0
   24.6190    7.6990   28.8370 H   0  0  0  0  0  0  0  0  0  0  0  0
   26.5510    5.2210   30.7840 H   0  0  0  0  0  0  0  0  0  0  0  0
   22.6630    2.1540   31.5420 H   0  0  0  0  0  0  0  0  0  0  0  0
   24.7140   -0.4170   33.3160 H   0  0  0  0  0  0  0  0  0  0  0  0
   23.1580    0.5420   33.1440 H   0  0  0  0  0  0  0  0  0  0  0  0
   24.0830   -0.0050   31.6410 H   0  0  0  0  0  0  0  0  0  0  0  0
   27.0290    2.4330   33.1960 H   0  0  0  0  0  0  0  0  0  0  0  0
   29.2930    2.0530   33.3840 H   0  0  0  0  0  0  0  0  0  0  0  0
   30.4400    2.8100   32.2190 H   0  0  0  0  0  0  0  0  0  0  0  0
   29.7360    3.7950   33.5650 H   0  0  0  0  0  0  0  0  0  0  0  0
  1  2  1  0  0  0  0
  1 31  1  0  0  0  0
  1 32  1  0  0  0  0
  1 33  1  0  0  0  0
  2  3  1  0  0  0  0
  2 34  1  0  0  0  0
  2 35  1  0  0  0  0
  3  4  1  0  0  0  0
  4 10  2  0  0  0  0
  4  5  1  0  0  0  0
  5  6  2  0  0  0  0
  6  7  1  0  0  0  0
  6 13  1  0  0  0  0
  7  8  2  0  0  0  0
  7 36  1  0  0  0  0
  8  9  1  0  0  0  0
  8 10  1  0  0  0  0
  9 37  1  0  0  0  0
  9 38  1  0  0  0  0
 10 11  1  0  0  0  0
 11 12  3  0  0  0  0
 13 14  1  0  0  0  0
 13 39  1  0  0  0  0
 14 15  2  0  0  0  0
 14 16  1  0  0  0  0
 16 17  1  0  0  0  0
 16 40  1  0  0  0  0
 16 41  1  0  0  0  0
 17 24  2  0  0  0  0
 17 18  1  0  0  0  0
 18 19  1  0  0  0  0
 18 21  2  0  0  0  0
 19 20  1  0  0  0  0
 20 42  1  0  0  0  0
 20 43  1  0  0  0  0
 20 44  1  0  0  0  0
 21 22  1  0  0  0  0
 21 45  1  0  0  0  0
 22 23  2  0  0  0  0
 22 27  1  0  0  0  0
 23 24  1  0  0  0  0
 23 25  1  0  0  0  0
 24 46  1  0  0  0  0
 25 26  1  0  0  0  0
 26 47  1  0  0  0  0
 26 48  1  0  0  0  0
 26 49  1  0  0  0  0
 27 28  1  0  0  0  0
 27 50  1  0  0  0  0
 28 29  2  0  0  0  0
 28 30  1  0  0  0  0
 30 51  1  0  0  0  0
 30 52  1  0  0  0  0
 30 53  1  0  0  0  0
M  END
$$$$
