p38a_2u
 OpenBabel02232411163D
Structure written by MMmdl.
 64 68  0  0  0  0  0  0  0  0999 V2000
   38.2310   36.4780   17.2520 C   0  0  0  0  0  0  0  0  0  0  0  0
   34.5360   35.1660   21.4430 C   0  0  0  0  0  0  0  0  0  0  0  0
   37.4720   36.0560   18.3390 C   0  0  0  0  0  0  0  0  0  0  0  0
   34.0720   39.3420   23.8500 C   0  0  0  0  0  0  0  0  0  0  0  0
   34.6580   38.0490   21.4850 C   0  0  0  0  0  0  0  0  0  0  0  0
   35.0430   37.3470   20.2910 C   0  0  0  0  0  0  0  0  0  0  0  0
   37.5550   36.6020   16.0300 C   0  0  0  0  0  0  0  0  0  0  0  0
   36.2010   36.3020   15.8660 C   0  0  0  0  0  0  0  0  0  0  0  0
   35.4620   35.8720   16.9730 C   0  0  0  0  0  0  0  0  0  0  0  0
   34.2950   37.3190   22.6540 C   0  0  0  0  0  0  0  0  0  0  0  0
   34.6380   39.4670   21.5800 C   0  0  0  0  0  0  0  0  0  0  0  0
   35.0250   35.9950   20.3020 C   0  0  0  0  0  0  0  0  0  0  0  0
   36.1030   35.7370   18.2080 C   0  0  0  0  0  0  0  0  0  0  0  0
   38.0350   35.9480   19.5350 F   0  0  0  0  0  0  0  0  0  0  0  0
   35.4110   35.1400   19.2710 O   0  0  0  0  0  0  0  0  0  0  0  0
   34.3580   40.1260   22.7150 N   0  0  0  0  0  0  0  0  0  0  0  0
   34.4150   33.9620   21.4140 O   0  0  0  0  0  0  0  0  0  0  0  0
   34.1940   35.9120   22.6270 N   0  0  0  0  0  0  0  0  0  0  0  0
   34.0360   37.9630   23.8370 N   0  0  0  0  0  0  0  0  0  0  0  0
   33.7470   39.9950   25.0200 N   0  0  0  0  0  0  0  0  0  0  0  0
   39.2890   36.7380   17.3530 H   0  0  0  0  0  0  0  0  0  0  0  0
   35.3500   37.9340   19.4230 H   0  0  0  0  0  0  0  0  0  0  0  0
   35.7080   36.4150   14.8960 H   0  0  0  0  0  0  0  0  0  0  0  0
   34.3920   35.6610   16.8670 H   0  0  0  0  0  0  0  0  0  0  0  0
   34.8540   40.0760   20.6870 H   0  0  0  0  0  0  0  0  0  0  0  0
   33.8760   41.0220   25.0900 H   0  0  0  0  0  0  0  0  0  0  0  0
   38.2340   37.0660   14.9830 F   0  0  0  0  0  0  0  0  0  0  0  0
   32.5710   39.3970   28.6060 C   0  0  0  0  0  0  0  0  0  0  0  0
   32.6070   40.0200   27.2050 C   0  0  0  0  0  0  0  0  0  0  0  0
   33.6370   39.2760   26.3260 C   0  0  0  0  0  0  0  0  0  0  0  0
   35.0120   39.2260   27.0310 C   0  0  0  0  0  0  0  0  0  0  0  0
   34.8530   38.6440   28.4400 C   0  0  0  0  0  0  0  0  0  0  0  0
   33.8820   39.3870   29.2150 O   0  0  0  0  0  0  0  0  0  0  0  0
   32.1790   38.3530   28.5680 H   0  0  0  0  0  0  0  0  0  0  0  0
   31.9840   40.0270   29.3120 H   0  0  0  0  0  0  0  0  0  0  0  0
   32.8820   41.0970   27.2890 H   0  0  0  0  0  0  0  0  0  0  0  0
   31.5980   39.9460   26.7350 H   0  0  0  0  0  0  0  0  0  0  0  0
   33.2690   38.2280   26.1410 H   0  0  0  0  0  0  0  0  0  0  0  0
   35.7090   38.5790   26.4460 H   0  0  0  0  0  0  0  0  0  0  0  0
   35.4420   40.2530   27.0910 H   0  0  0  0  0  0  0  0  0  0  0  0
   34.5360   37.5760   28.3970 H   0  0  0  0  0  0  0  0  0  0  0  0
   35.7830   38.7700   29.0400 H   0  0  0  0  0  0  0  0  0  0  0  0
   34.1090   33.7050   25.7970 C   0  0  0  0  0  0  0  0  0  0  0  0
   34.7110   34.2930   24.5020 C   0  0  0  0  0  0  0  0  0  0  0  0
   33.6540   35.2070   23.8520 C   0  0  0  0  0  0  0  0  0  0  0  0
   32.3900   34.3930   23.5140 C   0  0  0  0  0  0  0  0  0  0  0  0
   31.8260   33.8010   24.8200 C   0  0  0  0  0  0  0  0  0  0  0  0
   33.9230   34.5520   26.5210 H   0  0  0  0  0  0  0  0  0  0  0  0
   34.8570   32.9990   26.2410 H   0  0  0  0  0  0  0  0  0  0  0  0
   34.9990   33.4690   23.8100 H   0  0  0  0  0  0  0  0  0  0  0  0
   35.6150   34.8890   24.7720 H   0  0  0  0  0  0  0  0  0  0  0  0
   33.3630   35.9970   24.6090 H   0  0  0  0  0  0  0  0  0  0  0  0
   31.6120   35.0560   23.0660 H   0  0  0  0  0  0  0  0  0  0  0  0
   32.6290   33.5700   22.7990 H   0  0  0  0  0  0  0  0  0  0  0  0
   31.4880   34.6520   25.4800 H   0  0  0  0  0  0  0  0  0  0  0  0
   30.9390   33.1650   24.5590 H   0  0  0  0  0  0  0  0  0  0  0  0
   32.8440   32.9520   25.5190 N   0  0  0  0  0  0  0  0  0  0  0  0
   32.2200   32.0130   26.8390 S   0  0  0  0  0  0  0  0  0  0  0  0
   33.3350   31.1870   27.3330 O   0  0  0  0  0  0  0  0  0  0  0  0
   31.1080   31.2000   26.3090 O   0  0  0  0  0  0  0  0  0  0  0  0
   31.6670   33.1130   28.0580 C   0  0  0  0  0  0  0  0  0  0  0  0
   30.8540   33.8000   27.7000 H   0  0  0  0  0  0  0  0  0  0  0  0
   31.2520   32.5880   28.9570 H   0  0  0  0  0  0  0  0  0  0  0  0
   32.4810   33.7850   28.4420 H   0  0  0  0  0  0  0  0  0  0  0  0
  1  3  2  0  0  0  0
  1  7  1  0  0  0  0
  1 21  1  0  0  0  0
  2 12  1  0  0  0  0
  2 17  2  0  0  0  0
  2 18  1  0  0  0  0
  3 13  1  0  0  0  0
  3 14  1  0  0  0  0
  4 16  2  0  0  0  0
  4 19  1  0  0  0  0
  4 20  1  0  0  0  0
  5  6  1  0  0  0  0
  5 10  1  0  0  0  0
  5 11  2  0  0  0  0
  6 12  2  0  0  0  0
  6 22  1  0  0  0  0
  7  8  2  0  0  0  0
  7 27  1  0  0  0  0
  8  9  1  0  0  0  0
  8 23  1  0  0  0  0
  9 13  2  0  0  0  0
  9 24  1  0  0  0  0
 10 18  1  0  0  0  0
 10 19  2  0  0  0  0
 11 16  1  0  0  0  0
 11 25  1  0  0  0  0
 12 15  1  0  0  0  0
 13 15  1  0  0  0  0
 18 45  1  0  0  0  0
 20 26  1  0  0  0  0
 20 30  1  0  0  0  0
 28 29  1  0  0  0  0
 28 33  1  0  0  0  0
 28 34  1  0  0  0  0
 28 35  1  0  0  0  0
 29 30  1  0  0  0  0
 29 36  1  0  0  0  0
 29 37  1  0  0  0  0
 30 31  1  0  0  0  0
 30 38  1  0  0  0  0
 31 32  1  0  0  0  0
 31 39  1  0  0  0  0
 31 40  1  0  0  0  0
 32 33  1  0  0  0  0
 32 41  1  0  0  0  0
 32 42  1  0  0  0  0
 43 44  1  0  0  0  0
 43 48  1  0  0  0  0
 43 49  1  0  0  0  0
 43 57  1  0  0  0  0
 44 45  1  0  0  0  0
 44 50  1  0  0  0  0
 44 51  1  0  0  0  0
 45 46  1  0  0  0  0
 45 52  1  0  0  0  0
 46 47  1  0  0  0  0
 46 53  1  0  0  0  0
 46 54  1  0  0  0  0
 47 55  1  0  0  0  0
 47 56  1  0  0  0  0
 47 57  1  0  0  0  0
 57 58  1  0  0  0  0
 58 59  2  0  0  0  0
 58 60  2  0  0  0  0
 58 61  1  0  0  0  0
 61 62  1  0  0  0  0
 61 63  1  0  0  0  0
 61 64  1  0  0  0  0
M  END
$$$$
