18639-1
 OpenBabel02232411163D
Structure written by MMmdl.
 48 49  0  0  0  0  0  0  0  0999 V2000
   24.4450   10.8840   30.7490 C   0  0  0  0  0  0  0  0  0  0  0  0
   23.1210   11.2530   30.1130 C   0  0  0  0  0  0  0  0  0  0  0  0
   22.0450   11.3160   31.1250 O   0  0  0  0  0  0  0  0  0  0  0  0
   21.4580   10.1670   31.5330 C   0  0  0  0  0  0  0  0  0  0  0  0
   21.9370    8.9780   31.1000 N   0  0  0  0  0  0  0  0  0  0  0  0
   21.2420    7.8360   31.4670 C   0  0  0  0  0  0  0  0  0  0  0  0
   20.1040    7.8690   32.2650 C   0  0  0  0  0  0  0  0  0  0  0  0
   19.6160    9.1210   32.7280 C   0  0  0  0  0  0  0  0  0  0  0  0
   18.4810    9.1590   33.4960 N   0  0  0  0  0  0  0  0  0  0  0  0
   20.3070   10.3210   32.3640 C   0  0  0  0  0  0  0  0  0  0  0  0
   19.8960   11.6190   32.7310 C   0  0  0  0  0  0  0  0  0  0  0  0
   19.6080   12.7130   32.9920 N   0  0  0  0  0  0  0  0  0  0  0  0
   21.8310    6.6720   30.9200 N   0  0  0  0  0  0  0  0  0  0  0  0
   21.2610    5.3830   30.8640 C   0  0  0  0  0  0  0  0  0  0  0  0
   20.1870    5.1110   31.3550 O   0  0  0  0  0  0  0  0  0  0  0  0
   22.0940    4.3930   30.0560 C   0  0  0  0  0  0  0  0  0  0  0  0
   23.4670    4.1400   30.6060 C   0  0  0  0  0  0  0  0  0  0  0  0
   24.5540    5.0140   30.2810 C   0  0  0  0  0  0  0  0  0  0  0  0
   24.1800    6.0650   29.4540 O   0  0  0  0  0  0  0  0  0  0  0  0
   25.1300    7.1520   29.2740 C   0  0  0  0  0  0  0  0  0  0  0  0
   25.8400    4.7790   30.7410 C   0  0  0  0  0  0  0  0  0  0  0  0
   26.0880    3.6640   31.5690 C   0  0  0  0  0  0  0  0  0  0  0  0
   27.4460    3.4200   32.0610 N   0  3  0  0  0  0  0  0  0  0  0  0
   27.5980    2.6140   32.9660 O   0  5  0  0  0  0  0  0  0  0  0  0
   28.3740    4.0300   31.5420 O   0  0  0  0  0  0  0  0  0  0  0  0
   25.0260    2.7890   31.8990 C   0  0  0  0  0  0  0  0  0  0  0  0
   23.7250    3.0350   31.4010 C   0  0  0  0  0  0  0  0  0  0  0  0
   25.3890    1.7510   32.7030 O   0  0  0  0  0  0  0  0  0  0  0  0
   24.4030    0.7050   32.9470 C   0  0  0  0  0  0  0  0  0  0  0  0
   25.2360   10.8490   29.9590 H   0  0  0  0  0  0  0  0  0  0  0  0
   24.7430   11.6290   31.5160 H   0  0  0  0  0  0  0  0  0  0  0  0
   24.3960    9.8740   31.2220 H   0  0  0  0  0  0  0  0  0  0  0  0
   23.1020   12.3130   29.7610 H   0  0  0  0  0  0  0  0  0  0  0  0
   22.8280   10.5420   29.3070 H   0  0  0  0  0  0  0  0  0  0  0  0
   19.5710    6.9530   32.5250 H   0  0  0  0  0  0  0  0  0  0  0  0
   17.9820    8.2850   33.7530 H   0  0  0  0  0  0  0  0  0  0  0  0
   18.0710   10.0440   33.7960 H   0  0  0  0  0  0  0  0  0  0  0  0
   22.7390    6.8300   30.4140 H   0  0  0  0  0  0  0  0  0  0  0  0
   21.5310    3.4230   29.9990 H   0  0  0  0  0  0  0  0  0  0  0  0
   22.1940    4.8060   29.0110 H   0  0  0  0  0  0  0  0  0  0  0  0
   25.4930    7.5260   30.2550 H   0  0  0  0  0  0  0  0  0  0  0  0
   25.9560    6.8040   28.6180 H   0  0  0  0  0  0  0  0  0  0  0  0
   24.4940    7.9140   28.7650 H   0  0  0  0  0  0  0  0  0  0  0  0
   26.6740    5.4330   30.4600 H   0  0  0  0  0  0  0  0  0  0  0  0
   22.9160    2.3390   31.6400 H   0  0  0  0  0  0  0  0  0  0  0  0
   25.0010   -0.0270   33.5420 H   0  0  0  0  0  0  0  0  0  0  0  0
   23.5570    1.1070   33.5430 H   0  0  0  0  0  0  0  0  0  0  0  0
   24.0730    0.2590   31.9830 H   0  0  0  0  0  0  0  0  0  0  0  0
  1  2  1  0  0  0  0
  1 30  1  0  0  0  0
  1 31  1  0  0  0  0
  1 32  1  0  0  0  0
  2  3  1  0  0  0  0
  2 33  1  0  0  0  0
  2 34  1  0  0  0  0
  3  4  1  0  0  0  0
  4 10  2  0  0  0  0
  4  5  1  0  0  0  0
  5  6  2  0  0  0  0
  6  7  1  0  0  0  0
  6 13  1  0  0  0  0
  7  8  2  0  0  0  0
  7 35  1  0  0  0  0
  8  9  1  0  0  0  0
  8 10  1  0  0  0  0
  9 36  1  0  0  0  0
  9 37  1  0  0  0  0
 10 11  1  0  0  0  0
 11 12  3  0  0  0  0
 13 14  1  0  0  0  0
 13 38  1  0  0  0  0
 14 15  2  0  0  0  0
 14 16  1  0  0  0  0
 16 17  1  0  0  0  0
 16 39  1  0  0  0  0
 16 40  1  0  0  0  0
 17 27  2  0  0  0  0
 17 18  1  0  0  0  0
 18 19  1  0  0  0  0
 18 21  2  0  0  0  0
 19 20  1  0  0  0  0
 20 41  1  0  0  0  0
 20 42  1  0  0  0  0
 20 43  1  0  0  0  0
 21 22  1  0  0  0  0
 21 44  1  0  0  0  0
 22 23  1  0  0  0  0
 22 26  2  0  0  0  0
 23 24  1  0  0  0  0
 23 25  2  0  0  0  0
 26 27  1  0  0  0  0
 26 28  1  0  0  0  0
 27 45  1  0  0  0  0
 28 29  1  0  0  0  0
 29 46  1  0  0  0  0
 29 47  1  0  0  0  0
 29 48  1  0  0  0  0
M  CHG  2  23   1  24  -1
M  END
$$$$
