18638-1
 OpenBabel02232411163D
Structure written by MMmdl.
 52 53  0  0  0  0  0  0  0  0999 V2000
   24.0180   12.4840   30.3250 C   0  0  0  0  0  0  0  0  0  0  0  0
   23.5720   11.0400   30.4530 C   0  0  0  0  0  0  0  0  0  0  0  0
   22.3090   11.1490   31.2270 O   0  0  0  0  0  0  0  0  0  0  0  0
   21.6780   10.0170   31.5990 C   0  0  0  0  0  0  0  0  0  0  0  0
   22.1620    8.8170   31.1920 N   0  0  0  0  0  0  0  0  0  0  0  0
   21.4320    7.6900   31.5350 C   0  0  0  0  0  0  0  0  0  0  0  0
   20.2720    7.7500   32.3010 C   0  0  0  0  0  0  0  0  0  0  0  0
   19.7760    9.0090   32.7300 C   0  0  0  0  0  0  0  0  0  0  0  0
   18.6110    9.0660   33.4540 N   0  0  0  0  0  0  0  0  0  0  0  0
   20.4940   10.1950   32.3760 C   0  0  0  0  0  0  0  0  0  0  0  0
   20.0840   11.5010   32.7200 C   0  0  0  0  0  0  0  0  0  0  0  0
   19.7940   12.5970   32.9680 N   0  0  0  0  0  0  0  0  0  0  0  0
   21.9820    6.4990   30.9980 N   0  0  0  0  0  0  0  0  0  0  0  0
   21.2940    5.2690   30.8970 C   0  0  0  0  0  0  0  0  0  0  0  0
   20.2150    5.0760   31.4170 O   0  0  0  0  0  0  0  0  0  0  0  0
   21.9740    4.2420   30.0060 C   0  0  0  0  0  0  0  0  0  0  0  0
   23.3310    3.7860   30.4520 C   0  0  0  0  0  0  0  0  0  0  0  0
   24.4990    4.4760   30.0160 C   0  0  0  0  0  0  0  0  0  0  0  0
   24.2030    5.6130   29.2720 O   0  0  0  0  0  0  0  0  0  0  0  0
   25.2620    6.5940   29.1050 C   0  0  0  0  0  0  0  0  0  0  0  0
   25.7750    3.9830   30.2710 C   0  0  0  0  0  0  0  0  0  0  0  0
   25.9440    2.8060   31.0240 C   0  0  0  0  0  0  0  0  0  0  0  0
   27.5720    2.1720   31.1970 S   0  0  0  0  0  0  0  0  0  0  0  0
   28.5640    3.2600   31.0080 O   0  0  0  0  0  0  0  0  0  0  0  0
   27.7260    1.5520   32.5330 O   0  0  0  0  0  0  0  0  0  0  0  0
   27.6970    0.9960   29.9280 C   0  0  0  0  0  0  0  0  0  0  0  0
   24.7980    2.1720   31.5250 C   0  0  0  0  0  0  0  0  0  0  0  0
   23.4970    2.6430   31.2200 C   0  0  0  0  0  0  0  0  0  0  0  0
   25.0340    1.1010   32.3520 O   0  0  0  0  0  0  0  0  0  0  0  0
   23.9410    0.1700   32.5930 C   0  0  0  0  0  0  0  0  0  0  0  0
   24.9360   12.5200   29.6860 H   0  0  0  0  0  0  0  0  0  0  0  0
   23.2310   13.1040   29.8340 H   0  0  0  0  0  0  0  0  0  0  0  0
   24.2550   12.9270   31.3180 H   0  0  0  0  0  0  0  0  0  0  0  0
   23.3230   10.5820   29.4690 H   0  0  0  0  0  0  0  0  0  0  0  0
   24.2880   10.4190   31.0360 H   0  0  0  0  0  0  0  0  0  0  0  0
   19.7190    6.8430   32.5600 H   0  0  0  0  0  0  0  0  0  0  0  0
   18.1070    8.2010   33.7260 H   0  0  0  0  0  0  0  0  0  0  0  0
   18.2080    9.9580   33.7440 H   0  0  0  0  0  0  0  0  0  0  0  0
   22.8970    6.5930   30.4990 H   0  0  0  0  0  0  0  0  0  0  0  0
   21.3010    3.3480   29.9250 H   0  0  0  0  0  0  0  0  0  0  0  0
   22.0710    4.7060   28.9820 H   0  0  0  0  0  0  0  0  0  0  0  0
   24.6940    7.4680   28.7120 H   0  0  0  0  0  0  0  0  0  0  0  0
   25.7370    6.8290   30.0820 H   0  0  0  0  0  0  0  0  0  0  0  0
   25.9950    6.2150   28.3610 H   0  0  0  0  0  0  0  0  0  0  0  0
   26.6480    4.5060   29.8620 H   0  0  0  0  0  0  0  0  0  0  0  0
   27.5960    1.4630   28.9120 H   0  0  0  0  0  0  0  0  0  0  0  0
   28.6810    0.4580   29.9310 H   0  0  0  0  0  0  0  0  0  0  0  0
   26.9000    0.2100   29.9890 H   0  0  0  0  0  0  0  0  0  0  0  0
   22.6210    2.0970   31.5750 H   0  0  0  0  0  0  0  0  0  0  0  0
   23.5700   -0.2260   31.6240 H   0  0  0  0  0  0  0  0  0  0  0  0
   23.1410    0.6520   33.1940 H   0  0  0  0  0  0  0  0  0  0  0  0
   24.4540   -0.6310   33.1800 H   0  0  0  0  0  0  0  0  0  0  0  0
  1  2  1  0  0  0  0
  1 31  1  0  0  0  0
  1 32  1  0  0  0  0
  1 33  1  0  0  0  0
  2  3  1  0  0  0  0
  2 34  1  0  0  0  0
  2 35  1  0  0  0  0
  3  4  1  0  0  0  0
  4 10  2  0  0  0  0
  4  5  1  0  0  0  0
  5  6  2  0  0  0  0
  6  7  1  0  0  0  0
  6 13  1  0  0  0  0
  7  8  2  0  0  0  0
  7 36  1  0  0  0  0
  8  9  1  0  0  0  0
  8 10  1  0  0  0  0
  9 37  1  0  0  0  0
  9 38  1  0  0  0  0
 10 11  1  0  0  0  0
 11 12  3  0  0  0  0
 13 14  1  0  0  0  0
 13 39  1  0  0  0  0
 14 15  2  0  0  0  0
 14 16  1  0  0  0  0
 16 17  1  0  0  0  0
 16 40  1  0  0  0  0
 16 41  1  0  0  0  0
 17 28  2  0  0  0  0
 17 18  1  0  0  0  0
 18 19  1  0  0  0  0
 18 21  2  0  0  0  0
 19 20  1  0  0  0  0
 20 42  1  0  0  0  0
 20 43  1  0  0  0  0
 20 44  1  0  0  0  0
 21 22  1  0  0  0  0
 21 45  1  0  0  0  0
 22 23  1  0  0  0  0
 22 27  2  0  0  0  0
 23 24  2  0  0  0  0
 23 25  2  0  0  0  0
 23 26  1  0  0  0  0
 26 46  1  0  0  0  0
 26 47  1  0  0  0  0
 26 48  1  0  0  0  0
 27 28  1  0  0  0  0
 27 29  1  0  0  0  0
 28 49  1  0  0  0  0
 29 30  1  0  0  0  0
 30 50  1  0  0  0  0
 30 51  1  0  0  0  0
 30 52  1  0  0  0  0
M  END
$$$$
