p38a_2i
 OpenBabel02232411163D
Structure written by MMmdl.
 48 51  0  0  0  0  0  0  0  0999 V2000
   34.4380   38.3530   27.2090 C   0  0  0  0  0  0  0  0  0  0  0  0
   33.4850   37.1670   27.0280 C   0  0  0  0  0  0  0  0  0  0  0  0
   31.5400   38.5830   26.9740 C   0  0  0  0  0  0  0  0  0  0  0  0
   32.3540   39.8470   27.2510 C   0  0  0  0  0  0  0  0  0  0  0  0
   34.1730   34.4570   16.8330 C   0  0  0  0  0  0  0  0  0  0  0  0
   32.1680   37.4260   27.5630 O   0  0  0  0  0  0  0  0  0  0  0  0
   34.9970   35.7380   21.4070 C   0  0  0  0  0  0  0  0  0  0  0  0
   34.6490   35.0130   18.0250 C   0  0  0  0  0  0  0  0  0  0  0  0
   34.0700   39.5260   24.2480 C   0  0  0  0  0  0  0  0  0  0  0  0
   33.8430   39.7210   26.8510 C   0  0  0  0  0  0  0  0  0  0  0  0
   34.6460   38.5100   21.7560 C   0  0  0  0  0  0  0  0  0  0  0  0
   35.2470   38.0150   20.5520 C   0  0  0  0  0  0  0  0  0  0  0  0
   35.0070   34.4610   15.7150 C   0  0  0  0  0  0  0  0  0  0  0  0
   36.2870   35.0190   15.7980 C   0  0  0  0  0  0  0  0  0  0  0  0
   36.7330   35.5870   16.9920 C   0  0  0  0  0  0  0  0  0  0  0  0
   34.5250   37.6570   22.8980 C   0  0  0  0  0  0  0  0  0  0  0  0
   34.2760   39.8680   21.9220 C   0  0  0  0  0  0  0  0  0  0  0  0
   35.5480   36.6970   20.4350 C   0  0  0  0  0  0  0  0  0  0  0  0
   35.9230   35.5910   18.1420 C   0  0  0  0  0  0  0  0  0  0  0  0
   34.6020   35.3600   23.8870 C   0  0  0  0  0  0  0  0  0  0  0  0
   33.8400   34.9600   19.0820 F   0  0  0  0  0  0  0  0  0  0  0  0
   36.5000   36.1770   19.3990 C   0  0  0  0  0  0  0  0  0  0  0  0
   33.9830   40.3840   23.1180 N   0  0  0  0  0  0  0  0  0  0  0  0
   34.7260   34.5730   21.2060 O   0  0  0  0  0  0  0  0  0  0  0  0
   34.6950   36.2860   22.7270 N   0  0  0  0  0  0  0  0  0  0  0  0
   34.2330   38.1640   24.1480 N   0  0  0  0  0  0  0  0  0  0  0  0
   34.0540   40.1980   25.4470 N   0  0  0  0  0  0  0  0  0  0  0  0
   34.7490   38.4080   28.2870 H   0  0  0  0  0  0  0  0  0  0  0  0
   35.3650   38.1690   26.6090 H   0  0  0  0  0  0  0  0  0  0  0  0
   33.3740   36.9000   25.9540 H   0  0  0  0  0  0  0  0  0  0  0  0
   33.8220   36.2960   27.6380 H   0  0  0  0  0  0  0  0  0  0  0  0
   30.5580   38.6130   27.5010 H   0  0  0  0  0  0  0  0  0  0  0  0
   31.4170   38.4200   25.8800 H   0  0  0  0  0  0  0  0  0  0  0  0
   31.8960   40.7130   26.7140 H   0  0  0  0  0  0  0  0  0  0  0  0
   32.3240   40.0810   28.3460 H   0  0  0  0  0  0  0  0  0  0  0  0
   33.1610   34.0520   16.7540 H   0  0  0  0  0  0  0  0  0  0  0  0
   34.4190   40.5010   27.4500 H   0  0  0  0  0  0  0  0  0  0  0  0
   35.5070   38.7470   19.7810 H   0  0  0  0  0  0  0  0  0  0  0  0
   36.9380   35.0280   14.9230 H   0  0  0  0  0  0  0  0  0  0  0  0
   37.7280   36.0420   17.0230 H   0  0  0  0  0  0  0  0  0  0  0  0
   34.2190   40.5340   21.0450 H   0  0  0  0  0  0  0  0  0  0  0  0
   35.2280   35.7490   24.7370 H   0  0  0  0  0  0  0  0  0  0  0  0
   33.5380   35.2660   24.2280 H   0  0  0  0  0  0  0  0  0  0  0  0
   34.9820   34.3460   23.5970 H   0  0  0  0  0  0  0  0  0  0  0  0
   33.8600   41.2300   25.3880 H   0  0  0  0  0  0  0  0  0  0  0  0
   34.6570   34.0260   14.7770 H   0  0  0  0  0  0  0  0  0  0  0  0
   37.1770   37.0330   19.1060 H   0  0  0  0  0  0  0  0  0  0  0  0
   37.1550   35.3980   19.8760 H   0  0  0  0  0  0  0  0  0  0  0  0
  1  2  1  0  0  0  0
  1 10  1  0  0  0  0
  1 28  1  0  0  0  0
  1 29  1  0  0  0  0
  2  6  1  0  0  0  0
  2 30  1  0  0  0  0
  2 31  1  0  0  0  0
  3  4  1  0  0  0  0
  3  6  1  0  0  0  0
  3 32  1  0  0  0  0
  3 33  1  0  0  0  0
  4 10  1  0  0  0  0
  4 34  1  0  0  0  0
  4 35  1  0  0  0  0
  5  8  2  0  0  0  0
  5 13  1  0  0  0  0
  5 36  1  0  0  0  0
  7 18  1  0  0  0  0
  7 24  2  0  0  0  0
  7 25  1  0  0  0  0
  8 19  1  0  0  0  0
  8 21  1  0  0  0  0
  9 23  2  0  0  0  0
  9 26  1  0  0  0  0
  9 27  1  0  0  0  0
 10 27  1  0  0  0  0
 10 37  1  0  0  0  0
 11 12  1  0  0  0  0
 11 16  1  0  0  0  0
 11 17  2  0  0  0  0
 12 18  2  0  0  0  0
 12 38  1  0  0  0  0
 13 14  2  0  0  0  0
 13 46  1  0  0  0  0
 14 15  1  0  0  0  0
 14 39  1  0  0  0  0
 15 19  2  0  0  0  0
 15 40  1  0  0  0  0
 16 25  1  0  0  0  0
 16 26  2  0  0  0  0
 17 23  1  0  0  0  0
 17 41  1  0  0  0  0
 18 22  1  0  0  0  0
 19 22  1  0  0  0  0
 20 25  1  0  0  0  0
 20 42  1  0  0  0  0
 20 43  1  0  0  0  0
 20 44  1  0  0  0  0
 22 47  1  0  0  0  0
 22 48  1  0  0  0  0
 27 45  1  0  0  0  0
M  END
$$$$
