p38a_2u
 OpenBabel02232411163D
Structure written by MMmdl.
 64 68  0  0  0  0  0  0  0  0999 V2000
   38.2870   36.5550   17.1430 C   0  0  0  0  0  0  0  0  0  0  0  0
   34.5670   35.0830   21.2230 C   0  0  0  0  0  0  0  0  0  0  0  0
   37.5050   36.0980   18.2010 C   0  0  0  0  0  0  0  0  0  0  0  0
   33.9430   39.1580   23.7570 C   0  0  0  0  0  0  0  0  0  0  0  0
   34.6140   37.9620   21.3660 C   0  0  0  0  0  0  0  0  0  0  0  0
   35.0240   37.3130   20.1510 C   0  0  0  0  0  0  0  0  0  0  0  0
   37.6360   36.7170   15.9130 C   0  0  0  0  0  0  0  0  0  0  0  0
   36.2860   36.4230   15.7100 C   0  0  0  0  0  0  0  0  0  0  0  0
   35.5250   35.9520   16.7850 C   0  0  0  0  0  0  0  0  0  0  0  0
   34.2520   37.1820   22.5030 C   0  0  0  0  0  0  0  0  0  0  0  0
   34.5740   39.3750   21.5110 C   0  0  0  0  0  0  0  0  0  0  0  0
   35.0310   35.9620   20.1110 C   0  0  0  0  0  0  0  0  0  0  0  0
   36.1420   35.7800   18.0280 C   0  0  0  0  0  0  0  0  0  0  0  0
   38.0400   35.9610   19.4080 F   0  0  0  0  0  0  0  0  0  0  0  0
   35.4260   35.1470   19.0530 O   0  0  0  0  0  0  0  0  0  0  0  0
   34.2550   39.9870   22.6620 N   0  0  0  0  0  0  0  0  0  0  0  0
   34.4800   33.8770   21.1440 O   0  0  0  0  0  0  0  0  0  0  0  0
   34.2060   35.7740   22.4330 N   0  0  0  0  0  0  0  0  0  0  0  0
   33.9380   37.7800   23.6980 N   0  0  0  0  0  0  0  0  0  0  0  0
   33.5520   39.7690   24.9310 N   0  0  0  0  0  0  0  0  0  0  0  0
   39.3420   36.8110   17.2770 H   0  0  0  0  0  0  0  0  0  0  0  0
   35.3290   37.9360   19.3080 H   0  0  0  0  0  0  0  0  0  0  0  0
   35.8120   36.5710   14.7370 H   0  0  0  0  0  0  0  0  0  0  0  0
   34.4600   35.7370   16.6500 H   0  0  0  0  0  0  0  0  0  0  0  0
   34.8120   40.0210   20.6490 H   0  0  0  0  0  0  0  0  0  0  0  0
   33.6750   40.7960   25.0340 H   0  0  0  0  0  0  0  0  0  0  0  0
   38.3330   37.2150   14.8940 F   0  0  0  0  0  0  0  0  0  0  0  0
   32.3000   39.0350   28.4610 C   0  0  0  0  0  0  0  0  0  0  0  0
   32.3450   39.6860   27.0740 C   0  0  0  0  0  0  0  0  0  0  0  0
   33.4450   39.0190   26.2190 C   0  0  0  0  0  0  0  0  0  0  0  0
   34.7970   39.0390   26.9680 C   0  0  0  0  0  0  0  0  0  0  0  0
   34.6290   38.4310   28.3660 C   0  0  0  0  0  0  0  0  0  0  0  0
   33.5880   39.0990   29.1160 O   0  0  0  0  0  0  0  0  0  0  0  0
   31.9810   37.9690   28.3940 H   0  0  0  0  0  0  0  0  0  0  0  0
   31.6500   39.6110   29.1590 H   0  0  0  0  0  0  0  0  0  0  0  0
   32.5580   40.7760   27.1800 H   0  0  0  0  0  0  0  0  0  0  0  0
   31.3560   39.5650   26.5700 H   0  0  0  0  0  0  0  0  0  0  0  0
   33.1510   37.9530   26.0070 H   0  0  0  0  0  0  0  0  0  0  0  0
   35.5510   38.4430   26.4010 H   0  0  0  0  0  0  0  0  0  0  0  0
   35.1650   40.0890   27.0550 H   0  0  0  0  0  0  0  0  0  0  0  0
   34.3830   37.3450   28.3010 H   0  0  0  0  0  0  0  0  0  0  0  0
   35.5300   38.6080   28.9960 H   0  0  0  0  0  0  0  0  0  0  0  0
   34.5980   33.6210   25.6090 C   0  0  0  0  0  0  0  0  0  0  0  0
   34.9850   34.1770   24.2170 C   0  0  0  0  0  0  0  0  0  0  0  0
   33.7980   34.9920   23.6650 C   0  0  0  0  0  0  0  0  0  0  0  0
   32.5760   34.0920   23.3850 C   0  0  0  0  0  0  0  0  0  0  0  0
   32.4880   32.9530   24.4310 C   0  0  0  0  0  0  0  0  0  0  0  0
   34.8660   34.3880   26.3860 H   0  0  0  0  0  0  0  0  0  0  0  0
   35.1770   32.6800   25.7920 H   0  0  0  0  0  0  0  0  0  0  0  0
   35.2350   33.3360   23.5320 H   0  0  0  0  0  0  0  0  0  0  0  0
   35.8800   34.8290   24.3360 H   0  0  0  0  0  0  0  0  0  0  0  0
   33.4960   35.7340   24.4640 H   0  0  0  0  0  0  0  0  0  0  0  0
   31.6560   34.7220   23.4370 H   0  0  0  0  0  0  0  0  0  0  0  0
   32.6260   33.6260   22.3740 H   0  0  0  0  0  0  0  0  0  0  0  0
   31.4070   32.7190   24.6130 H   0  0  0  0  0  0  0  0  0  0  0  0
   33.0070   32.0410   24.0350 H   0  0  0  0  0  0  0  0  0  0  0  0
   33.1270   33.3800   25.7060 N   0  0  0  0  0  0  0  0  0  0  0  0
   32.4260   33.0190   27.2200 S   0  0  0  0  0  0  0  0  0  0  0  0
   33.1410   31.9130   27.8820 O   0  0  0  0  0  0  0  0  0  0  0  0
   31.0040   32.6920   26.9870 O   0  0  0  0  0  0  0  0  0  0  0  0
   32.6150   34.4870   28.1180 C   0  0  0  0  0  0  0  0  0  0  0  0
   32.3780   35.3930   27.4980 H   0  0  0  0  0  0  0  0  0  0  0  0
   31.9380   34.5280   29.0110 H   0  0  0  0  0  0  0  0  0  0  0  0
   33.6590   34.6270   28.5030 H   0  0  0  0  0  0  0  0  0  0  0  0
  1  3  2  0  0  0  0
  1  7  1  0  0  0  0
  1 21  1  0  0  0  0
  2 12  1  0  0  0  0
  2 17  2  0  0  0  0
  2 18  1  0  0  0  0
  3 13  1  0  0  0  0
  3 14  1  0  0  0  0
  4 16  2  0  0  0  0
  4 19  1  0  0  0  0
  4 20  1  0  0  0  0
  5  6  1  0  0  0  0
  5 10  1  0  0  0  0
  5 11  2  0  0  0  0
  6 12  2  0  0  0  0
  6 22  1  0  0  0  0
  7  8  2  0  0  0  0
  7 27  1  0  0  0  0
  8  9  1  0  0  0  0
  8 23  1  0  0  0  0
  9 13  2  0  0  0  0
  9 24  1  0  0  0  0
 10 18  1  0  0  0  0
 10 19  2  0  0  0  0
 11 16  1  0  0  0  0
 11 25  1  0  0  0  0
 12 15  1  0  0  0  0
 13 15  1  0  0  0  0
 18 45  1  0  0  0  0
 20 26  1  0  0  0  0
 20 30  1  0  0  0  0
 28 29  1  0  0  0  0
 28 33  1  0  0  0  0
 28 34  1  0  0  0  0
 28 35  1  0  0  0  0
 29 30  1  0  0  0  0
 29 36  1  0  0  0  0
 29 37  1  0  0  0  0
 30 31  1  0  0  0  0
 30 38  1  0  0  0  0
 31 32  1  0  0  0  0
 31 39  1  0  0  0  0
 31 40  1  0  0  0  0
 32 33  1  0  0  0  0
 32 41  1  0  0  0  0
 32 42  1  0  0  0  0
 43 44  1  0  0  0  0
 43 48  1  0  0  0  0
 43 49  1  0  0  0  0
 43 57  1  0  0  0  0
 44 45  1  0  0  0  0
 44 50  1  0  0  0  0
 44 51  1  0  0  0  0
 45 46  1  0  0  0  0
 45 52  1  0  0  0  0
 46 47  1  0  0  0  0
 46 53  1  0  0  0  0
 46 54  1  0  0  0  0
 47 55  1  0  0  0  0
 47 56  1  0  0  0  0
 47 57  1  0  0  0  0
 57 58  1  0  0  0  0
 58 59  2  0  0  0  0
 58 60  2  0  0  0  0
 58 61  1  0  0  0  0
 61 62  1  0  0  0  0
 61 63  1  0  0  0  0
 61 64  1  0  0  0  0
M  END
$$$$
