2r
                    3D
 Schrodinger Suite 2022-3.
 56 59  0  0  1  0  0  0  0  0999 V2000
   27.1560    8.8420   30.5110 C   0  0  0  0  0  0  0  0  0  0  0  0
   28.5130    9.4340   30.9100 C   0  0  0  0  0  0  0  0  0  0  0  0
   28.4910    8.2610   33.0260 C   0  0  0  0  0  0  0  0  0  0  0  0
   27.1460    7.5980   32.7070 C   0  0  0  0  0  0  0  0  0  0  0  0
   15.8730   10.4790   31.6590 C   0  0  0  0  0  0  0  0  0  0  0  0
   29.2310    8.5760   31.8250 O   0  0  0  0  0  0  0  0  0  0  0  0
   21.2330   12.5230   31.4030 C   0  0  0  0  0  0  0  0  0  0  0  0
   17.1620   10.9900   31.7820 C   0  0  0  0  0  0  0  0  0  0  0  0
   23.8980    8.4950   31.1370 C   0  0  0  0  0  0  0  0  0  0  0  0
   26.3310    8.5210   31.7780 C   0  0  0  0  0  0  0  0  0  0  0  0
   21.4730    9.7350   30.7530 C   0  0  0  0  0  0  0  0  0  0  0  0
   20.1930   10.3750   30.6370 C   0  0  0  0  0  0  0  0  0  0  0  0
   15.1880   10.7760   30.4740 C   0  0  0  0  0  0  0  0  0  0  0  0
   15.7360   11.5450   29.4440 C   0  0  0  0  0  0  0  0  0  0  0  0
   17.0260   12.0630   29.5980 C   0  0  0  0  0  0  0  0  0  0  0  0
   22.5890   10.4450   31.2880 C   0  0  0  0  0  0  0  0  0  0  0  0
   21.6850    8.3810   30.3760 C   0  0  0  0  0  0  0  0  0  0  0  0
   20.0880   11.6790   30.9780 C   0  0  0  0  0  0  0  0  0  0  0  0
   17.7310   11.7980   30.7760 C   0  0  0  0  0  0  0  0  0  0  0  0
   23.5820   12.5350   32.2920 C   0  0  0  0  0  0  0  0  0  0  0  0
   17.8830   10.7050   32.8590 F   0  0  0  0  0  0  0  0  0  0  0  0
   13.9640   10.2790   30.3120 F   0  0  0  0  0  0  0  0  0  0  0  0
   18.9400   12.4680   30.9880 O   0  0  0  0  0  0  0  0  0  0  0  0
   22.8540    7.7500   30.5510 N   0  0  0  0  0  0  0  0  0  0  0  0
   21.1890   13.7180   31.5940 O   0  0  0  0  0  0  0  0  0  0  0  0
   22.4640   11.8070   31.6240 N   0  0  0  0  0  0  0  0  0  0  0  0
   23.7970    9.8280   31.4850 N   0  0  0  0  0  0  0  0  0  0  0  0
   25.0640    7.8180   31.4190 N   0  0  0  0  0  0  0  0  0  0  0  0
   15.1840   11.7320   28.5220 H   0  0  0  0  0  0  0  0  0  0  0  0
   17.4760   12.6640   28.8010 H   0  0  0  0  0  0  0  0  0  0  0  0
   15.4370    9.8490   32.4340 H   0  0  0  0  0  0  0  0  0  0  0  0
   19.3490    9.7830   30.2840 H   0  0  0  0  0  0  0  0  0  0  0  0
   20.8670    7.8070   29.9100 H   0  0  0  0  0  0  0  0  0  0  0  0
   27.3060    7.9050   29.9250 H   0  0  0  0  0  0  0  0  0  0  0  0
   26.6120    9.5740   29.8700 H   0  0  0  0  0  0  0  0  0  0  0  0
   28.3860   10.4350   31.3800 H   0  0  0  0  0  0  0  0  0  0  0  0
   29.2090    9.4790   30.0420 H   0  0  0  0  0  0  0  0  0  0  0  0
   29.1750    7.5520   33.5470 H   0  0  0  0  0  0  0  0  0  0  0  0
   28.3450    9.1960   33.6150 H   0  0  0  0  0  0  0  0  0  0  0  0
   26.5830    7.4120   33.6540 H   0  0  0  0  0  0  0  0  0  0  0  0
   27.3170    6.6120   32.2090 H   0  0  0  0  0  0  0  0  0  0  0  0
   26.0780    9.4740   32.3200 H   0  0  0  0  0  0  0  0  0  0  0  0
   23.1290   13.2780   33.0030 H   0  0  0  0  0  0  0  0  0  0  0  0
   24.1970   11.7970   32.8790 H   0  0  0  0  0  0  0  0  0  0  0  0
   25.1880    6.8580   31.0360 H   0  0  0  0  0  0  0  0  0  0  0  0
   24.5380   13.3130   31.3230 C   0  0  0  0  0  0  0  0  0  0  0  0
   23.7980   14.1460   30.2790 C   0  0  0  0  0  0  0  0  0  0  0  0
   22.9710   14.7300   30.7400 H   0  0  0  0  0  0  0  0  0  0  0  0
   24.5050   14.8540   29.7870 H   0  0  0  0  0  0  0  0  0  0  0  0
   23.3690   13.4910   29.4890 H   0  0  0  0  0  0  0  0  0  0  0  0
   25.6050   12.4150   30.7050 C   0  0  0  0  0  0  0  0  0  0  0  0
   25.1330   11.6060   30.1050 H   0  0  0  0  0  0  0  0  0  0  0  0
   26.2780   13.0000   30.0350 H   0  0  0  0  0  0  0  0  0  0  0  0
   26.2290   11.9430   31.4980 H   0  0  0  0  0  0  0  0  0  0  0  0
   25.2990   14.2020   32.1860 O   0  0  0  0  0  0  0  0  0  0  0  0
   24.7030   14.8000   32.7170 H   0  0  0  0  0  0  0  0  0  0  0  0
  1  2  1  0  0  0  0
  1 10  1  0  0  0  0
  1 34  1  0  0  0  0
  1 35  1  0  0  0  0
  2  6  1  0  0  0  0
  2 36  1  0  0  0  0
  2 37  1  0  0  0  0
  3  4  1  0  0  0  0
  3  6  1  0  0  0  0
  3 38  1  0  0  0  0
  3 39  1  0  0  0  0
  4 10  1  0  0  0  0
  4 40  1  0  0  0  0
  4 41  1  0  0  0  0
  5  8  1  0  0  0  0
  5 13  2  0  0  0  0
  5 31  1  0  0  0  0
  7 18  1  0  0  0  0
  7 25  2  0  0  0  0
  7 26  1  0  0  0  0
  8 19  2  0  0  0  0
  8 21  1  0  0  0  0
  9 24  1  0  0  0  0
  9 27  2  0  0  0  0
  9 28  1  0  0  0  0
 10 28  1  0  0  0  0
 10 42  1  0  0  0  0
 11 12  1  0  0  0  0
 11 16  2  0  0  0  0
 11 17  1  0  0  0  0
 12 18  2  0  0  0  0
 12 32  1  0  0  0  0
 13 14  1  0  0  0  0
 13 22  1  0  0  0  0
 14 15  2  0  0  0  0
 14 29  1  0  0  0  0
 15 19  1  0  0  0  0
 15 30  1  0  0  0  0
 16 26  1  0  0  0  0
 16 27  1  0  0  0  0
 17 24  2  0  0  0  0
 17 33  1  0  0  0  0
 18 23  1  0  0  0  0
 19 23  1  0  0  0  0
 20 26  1  0  0  0  0
 20 43  1  0  0  0  0
 20 44  1  0  0  0  0
 20 46  1  0  0  0  0
 28 45  1  0  0  0  0
 46 47  1  0  0  0  0
 46 51  1  0  0  0  0
 46 55  1  0  0  0  0
 47 48  1  0  0  0  0
 47 49  1  0  0  0  0
 47 50  1  0  0  0  0
 51 52  1  0  0  0  0
 51 53  1  0  0  0  0
 51 54  1  0  0  0  0
 55 56  1  0  0  0  0
M  END
$$$$
