18634-1
 OpenBabel02232411163D
Structure written by MMmdl.
 46 47  0  0  0  0  0  0  0  0999 V2000
   23.8630   12.5790   30.3300 C   0  0  0  0  0  0  0  0  0  0  0  0
   23.4280   11.1320   30.4690 C   0  0  0  0  0  0  0  0  0  0  0  0
   22.1710   11.2340   31.2510 O   0  0  0  0  0  0  0  0  0  0  0  0
   21.5280   10.0950   31.5880 C   0  0  0  0  0  0  0  0  0  0  0  0
   22.0020    8.9070   31.1470 N   0  0  0  0  0  0  0  0  0  0  0  0
   21.2700    7.7690   31.4610 C   0  0  0  0  0  0  0  0  0  0  0  0
   20.1140    7.8120   32.2360 C   0  0  0  0  0  0  0  0  0  0  0  0
   19.6320    9.0630   32.7040 C   0  0  0  0  0  0  0  0  0  0  0  0
   18.4860    9.1110   33.4570 N   0  0  0  0  0  0  0  0  0  0  0  0
   20.3430   10.2590   32.3660 C   0  0  0  0  0  0  0  0  0  0  0  0
   19.9240   11.5590   32.7170 C   0  0  0  0  0  0  0  0  0  0  0  0
   19.6240   12.6520   32.9640 N   0  0  0  0  0  0  0  0  0  0  0  0
   21.8340    6.6090   30.8900 N   0  0  0  0  0  0  0  0  0  0  0  0
   21.2650    5.3130   30.8610 C   0  0  0  0  0  0  0  0  0  0  0  0
   20.2050    5.0500   31.3870 O   0  0  0  0  0  0  0  0  0  0  0  0
   22.0790    4.3160   30.0460 C   0  0  0  0  0  0  0  0  0  0  0  0
   23.4170    4.0210   30.6580 C   0  0  0  0  0  0  0  0  0  0  0  0
   24.5380    4.8570   30.3780 C   0  0  0  0  0  0  0  0  0  0  0  0
   24.2320    5.8970   29.5070 O   0  0  0  0  0  0  0  0  0  0  0  0
   25.2270    6.9420   29.3420 C   0  0  0  0  0  0  0  0  0  0  0  0
   25.7920    4.6060   30.9230 C   0  0  0  0  0  0  0  0  0  0  0  0
   25.9680    3.5120   31.7830 C   0  0  0  0  0  0  0  0  0  0  0  0
   24.8780    2.6900   32.0620 C   0  0  0  0  0  0  0  0  0  0  0  0
   23.6020    2.9270   31.4910 C   0  0  0  0  0  0  0  0  0  0  0  0
   24.8820    1.5860   32.8900 O   0  0  0  0  0  0  0  0  0  0  0  0
   26.1330    1.2390   33.5380 C   0  0  0  0  0  0  0  0  0  0  0  0
   24.0590   13.0410   31.3230 H   0  0  0  0  0  0  0  0  0  0  0  0
   23.0870   13.1800   29.8000 H   0  0  0  0  0  0  0  0  0  0  0  0
   24.8030   12.6140   29.7250 H   0  0  0  0  0  0  0  0  0  0  0  0
   23.1830   10.6670   29.4880 H   0  0  0  0  0  0  0  0  0  0  0  0
   24.1530   10.5210   31.0530 H   0  0  0  0  0  0  0  0  0  0  0  0
   19.5600    6.9020   32.4760 H   0  0  0  0  0  0  0  0  0  0  0  0
   18.0900    9.9990   33.7650 H   0  0  0  0  0  0  0  0  0  0  0  0
   17.9820    8.2440   33.7230 H   0  0  0  0  0  0  0  0  0  0  0  0
   22.7520    6.7540   30.3980 H   0  0  0  0  0  0  0  0  0  0  0  0
   21.4900    3.3670   29.9510 H   0  0  0  0  0  0  0  0  0  0  0  0
   22.2330    4.7440   29.0170 H   0  0  0  0  0  0  0  0  0  0  0  0
   26.1040    6.5370   28.7940 H   0  0  0  0  0  0  0  0  0  0  0  0
   24.6710    7.6870   28.7280 H   0  0  0  0  0  0  0  0  0  0  0  0
   25.5130    7.3670   30.3280 H   0  0  0  0  0  0  0  0  0  0  0  0
   26.6560    5.2360   30.6970 H   0  0  0  0  0  0  0  0  0  0  0  0
   26.9600    3.3350   32.2050 H   0  0  0  0  0  0  0  0  0  0  0  0
   22.7870    2.2340   31.7170 H   0  0  0  0  0  0  0  0  0  0  0  0
   26.9060    0.9920   32.7770 H   0  0  0  0  0  0  0  0  0  0  0  0
   26.4620    2.0640   34.2070 H   0  0  0  0  0  0  0  0  0  0  0  0
   25.8440    0.3350   34.1230 H   0  0  0  0  0  0  0  0  0  0  0  0
  1  2  1  0  0  0  0
  1 27  1  0  0  0  0
  1 28  1  0  0  0  0
  1 29  1  0  0  0  0
  2  3  1  0  0  0  0
  2 30  1  0  0  0  0
  2 31  1  0  0  0  0
  3  4  1  0  0  0  0
  4 10  2  0  0  0  0
  4  5  1  0  0  0  0
  5  6  2  0  0  0  0
  6  7  1  0  0  0  0
  6 13  1  0  0  0  0
  7  8  2  0  0  0  0
  7 32  1  0  0  0  0
  8  9  1  0  0  0  0
  8 10  1  0  0  0  0
  9 33  1  0  0  0  0
  9 34  1  0  0  0  0
 10 11  1  0  0  0  0
 11 12  3  0  0  0  0
 13 14  1  0  0  0  0
 13 35  1  0  0  0  0
 14 15  2  0  0  0  0
 14 16  1  0  0  0  0
 16 17  1  0  0  0  0
 16 36  1  0  0  0  0
 16 37  1  0  0  0  0
 17 24  2  0  0  0  0
 17 18  1  0  0  0  0
 18 19  1  0  0  0  0
 18 21  2  0  0  0  0
 19 20  1  0  0  0  0
 20 38  1  0  0  0  0
 20 39  1  0  0  0  0
 20 40  1  0  0  0  0
 21 22  1  0  0  0  0
 21 41  1  0  0  0  0
 22 23  2  0  0  0  0
 22 42  1  0  0  0  0
 23 24  1  0  0  0  0
 23 25  1  0  0  0  0
 24 43  1  0  0  0  0
 25 26  1  0  0  0  0
 26 44  1  0  0  0  0
 26 45  1  0  0  0  0
 26 46  1  0  0  0  0
M  END
$$$$
