46
 OpenBabel02232411163D
Structure written by MMmdl.
 45 48  0  0  0  0  0  0  0  0999 V2000
    3.5500  -48.4190    7.1450 O   0  0  0  0  0  0  0  0  0  0  0  0
    3.1490  -49.3830    6.4790 C   0  0  0  0  0  0  0  0  0  0  0  0
    3.8510  -50.2260    5.8870 O   0  5  0  0  0  0  0  0  0  0  0  0
    1.6300  -49.6120    6.3700 C   0  0  0  0  0  0  0  0  0  0  0  0
   -0.2970  -50.8370    6.5330 C   0  0  0  0  0  0  0  0  0  0  0  0
   -1.2750  -51.8170    6.7750 C   0  0  0  0  0  0  0  0  0  0  0  0
   -2.5860  -51.5070    6.4430 C   0  0  0  0  0  0  0  0  0  0  0  0
   -2.9230  -50.2540    5.8780 C   0  0  0  0  0  0  0  0  0  0  0  0
   -1.9620  -49.2810    5.6390 C   0  0  0  0  0  0  0  0  0  0  0  0
   -0.6230  -49.5510    5.9680 C   0  0  0  0  0  0  0  0  0  0  0  0
    0.6110  -48.7970    5.8910 C   0  0  0  0  0  0  0  0  0  0  0  0
    0.6930  -47.3940    5.4030 C   0  0  0  0  0  0  0  0  0  0  0  0
    0.6570  -46.3660    6.5490 C   0  0  0  0  0  0  0  0  0  0  0  0
   -0.6510  -46.3870    7.3340 C   0  0  0  0  0  0  0  0  0  0  0  0
   -1.6470  -45.8330    6.3980 O   0  0  0  0  0  0  0  0  0  0  0  0
   -2.9060  -45.6070    6.8800 C   0  0  0  0  0  0  0  0  0  0  0  0
   -5.0090  -44.4740    6.4450 C   0  0  0  0  0  0  0  0  0  0  0  0
   -3.7140  -44.8150    6.0390 C   0  0  0  0  0  0  0  0  0  0  0  0
   -1.0230  -52.7820    7.2130 H   0  0  0  0  0  0  0  0  0  0  0  0
   -3.3790  -52.2340    6.6190 H   0  0  0  0  0  0  0  0  0  0  0  0
   -3.9680  -50.0590    5.6340 H   0  0  0  0  0  0  0  0  0  0  0  0
   -2.2510  -48.3210    5.2090 H   0  0  0  0  0  0  0  0  0  0  0  0
   -0.1850  -47.1900    4.7370 H   0  0  0  0  0  0  0  0  0  0  0  0
    1.6290  -47.2300    4.8190 H   0  0  0  0  0  0  0  0  0  0  0  0
    0.7840  -45.3440    6.1220 H   0  0  0  0  0  0  0  0  0  0  0  0
    1.4860  -46.5800    7.2660 H   0  0  0  0  0  0  0  0  0  0  0  0
   -0.6200  -45.7080    8.2120 H   0  0  0  0  0  0  0  0  0  0  0  0
   -0.9840  -47.4150    7.5890 H   0  0  0  0  0  0  0  0  0  0  0  0
   -3.3370  -44.4670    5.0820 H   0  0  0  0  0  0  0  0  0  0  0  0
   -3.3820  -46.1120    8.1090 C   0  0  0  0  0  0  0  0  0  0  0  0
   -5.6390  -43.8550    5.8070 H   0  0  0  0  0  0  0  0  0  0  0  0
   -2.7900  -46.7540    8.7520 H   0  0  0  0  0  0  0  0  0  0  0  0
    1.0870  -50.8490    6.7700 N   0  0  0  0  0  0  0  0  0  0  0  0
   -6.6320  -45.2330    9.7730 C   0  0  0  0  0  0  0  0  0  0  0  0
   -5.3970  -46.1690    9.7350 C   0  0  0  0  0  0  0  0  0  0  0  0
   -4.6730  -45.7700    8.4780 C   0  0  0  0  0  0  0  0  0  0  0  0
   -5.4810  -44.9370    7.6680 C   0  0  0  0  0  0  0  0  0  0  0  0
   -6.8050  -44.6780    8.3310 C   0  0  0  0  0  0  0  0  0  0  0  0
   -7.0490  -43.5970    8.3380 H   0  0  0  0  0  0  0  0  0  0  0  0
   -7.6190  -45.2250    7.8010 H   0  0  0  0  0  0  0  0  0  0  0  0
   -7.5340  -45.7840   10.0990 H   0  0  0  0  0  0  0  0  0  0  0  0
   -6.4470  -44.3980   10.4810 H   0  0  0  0  0  0  0  0  0  0  0  0
   -5.7190  -47.2360    9.6690 H   0  0  0  0  0  0  0  0  0  0  0  0
   -4.7630  -46.0450   10.6330 H   0  0  0  0  0  0  0  0  0  0  0  0
    1.5810  -51.6480    7.1500 H   0  0  0  0  0  0  0  0  0  0  0  0
  1  2  2  0  0  0  0
  2  3  1  0  0  0  0
  2  4  1  0  0  0  0
  4 11  2  0  0  0  0
  4 33  1  0  0  0  0
  5  6  2  0  0  0  0
  5 10  1  0  0  0  0
  5 33  1  0  0  0  0
  6  7  1  0  0  0  0
  6 19  1  0  0  0  0
  7  8  2  0  0  0  0
  7 20  1  0  0  0  0
  8  9  1  0  0  0  0
  8 21  1  0  0  0  0
  9 10  2  0  0  0  0
  9 22  1  0  0  0  0
 10 11  1  0  0  0  0
 11 12  1  0  0  0  0
 12 23  1  0  0  0  0
 12 24  1  0  0  0  0
 12 13  1  0  0  0  0
 13 14  1  0  0  0  0
 13 25  1  0  0  0  0
 13 26  1  0  0  0  0
 14 15  1  0  0  0  0
 14 27  1  0  0  0  0
 14 28  1  0  0  0  0
 15 16  1  0  0  0  0
 16 18  2  0  0  0  0
 16 30  1  0  0  0  0
 17 18  1  0  0  0  0
 17 31  1  0  0  0  0
 17 37  2  0  0  0  0
 18 29  1  0  0  0  0
 30 32  1  0  0  0  0
 30 36  2  0  0  0  0
 33 45  1  0  0  0  0
 34 35  1  0  0  0  0
 34 38  1  0  0  0  0
 34 41  1  0  0  0  0
 34 42  1  0  0  0  0
 35 36  1  0  0  0  0
 35 43  1  0  0  0  0
 35 44  1  0  0  0  0
 36 37  1  0  0  0  0
 37 38  1  0  0  0  0
 38 39  1  0  0  0  0
 38 40  1  0  0  0  0
M  CHG  1   3  -1
M  END
$$$$
