p38a_2u
 OpenBabel02232411163D
Structure written by MMmdl.
 64 68  0  0  0  0  0  0  0  0999 V2000
   38.2550   36.5300   17.1690 C   0  0  0  0  0  0  0  0  0  0  0  0
   34.5720   35.1400   21.2660 C   0  0  0  0  0  0  0  0  0  0  0  0
   37.4580   36.0870   18.2220 C   0  0  0  0  0  0  0  0  0  0  0  0
   33.9950   39.2450   23.7610 C   0  0  0  0  0  0  0  0  0  0  0  0
   34.6100   38.0220   21.3670 C   0  0  0  0  0  0  0  0  0  0  0  0
   34.9800   37.3560   20.1480 C   0  0  0  0  0  0  0  0  0  0  0  0
   37.6150   36.7020   15.9340 C   0  0  0  0  0  0  0  0  0  0  0  0
   36.2620   36.4290   15.7220 C   0  0  0  0  0  0  0  0  0  0  0  0
   35.4850   35.9730   16.7930 C   0  0  0  0  0  0  0  0  0  0  0  0
   34.3110   37.2560   22.5320 C   0  0  0  0  0  0  0  0  0  0  0  0
   34.5470   39.4360   21.4920 C   0  0  0  0  0  0  0  0  0  0  0  0
   34.9930   36.0040   20.1270 C   0  0  0  0  0  0  0  0  0  0  0  0
   36.0900   35.7940   18.0400 C   0  0  0  0  0  0  0  0  0  0  0  0
   37.9830   35.9370   19.4310 F   0  0  0  0  0  0  0  0  0  0  0  0
   35.3530   35.1800   19.0630 O   0  0  0  0  0  0  0  0  0  0  0  0
   34.2570   40.0610   22.6440 N   0  0  0  0  0  0  0  0  0  0  0  0
   34.4610   33.9350   21.2040 O   0  0  0  0  0  0  0  0  0  0  0  0
   34.3050   35.8460   22.4920 N   0  0  0  0  0  0  0  0  0  0  0  0
   34.0220   37.8660   23.7250 N   0  0  0  0  0  0  0  0  0  0  0  0
   33.6220   39.8600   24.9370 N   0  0  0  0  0  0  0  0  0  0  0  0
   39.3130   36.7690   17.3090 H   0  0  0  0  0  0  0  0  0  0  0  0
   35.2500   37.9680   19.2860 H   0  0  0  0  0  0  0  0  0  0  0  0
   35.7980   36.5810   14.7440 H   0  0  0  0  0  0  0  0  0  0  0  0
   34.4180   35.7750   16.6500 H   0  0  0  0  0  0  0  0  0  0  0  0
   34.7410   40.0720   20.6120 H   0  0  0  0  0  0  0  0  0  0  0  0
   33.7260   40.8890   25.0320 H   0  0  0  0  0  0  0  0  0  0  0  0
   38.3270   37.1890   14.9200 F   0  0  0  0  0  0  0  0  0  0  0  0
   32.3970   39.0820   28.4670 C   0  0  0  0  0  0  0  0  0  0  0  0
   32.4070   39.7270   27.0760 C   0  0  0  0  0  0  0  0  0  0  0  0
   33.5460   39.1150   26.2310 C   0  0  0  0  0  0  0  0  0  0  0  0
   34.8940   39.2140   26.9810 C   0  0  0  0  0  0  0  0  0  0  0  0
   34.7570   38.6180   28.3880 C   0  0  0  0  0  0  0  0  0  0  0  0
   33.6770   39.2350   29.1250 O   0  0  0  0  0  0  0  0  0  0  0  0
   32.1500   37.9960   28.4010 H   0  0  0  0  0  0  0  0  0  0  0  0
   31.7070   39.6170   29.1570 H   0  0  0  0  0  0  0  0  0  0  0  0
   32.5580   40.8280   27.1730 H   0  0  0  0  0  0  0  0  0  0  0  0
   31.4290   39.5430   26.5700 H   0  0  0  0  0  0  0  0  0  0  0  0
   33.3090   38.0340   26.0270 H   0  0  0  0  0  0  0  0  0  0  0  0
   35.6760   38.6480   26.4200 H   0  0  0  0  0  0  0  0  0  0  0  0
   35.2080   40.2830   27.0510 H   0  0  0  0  0  0  0  0  0  0  0  0
   34.5760   37.5190   28.3370 H   0  0  0  0  0  0  0  0  0  0  0  0
   35.6450   38.8580   29.0160 H   0  0  0  0  0  0  0  0  0  0  0  0
   34.7100   33.2940   25.3730 C   0  0  0  0  0  0  0  0  0  0  0  0
   35.0470   34.0390   24.0660 C   0  0  0  0  0  0  0  0  0  0  0  0
   33.9590   35.0840   23.7550 C   0  0  0  0  0  0  0  0  0  0  0  0
   32.5510   34.4630   23.6450 C   0  0  0  0  0  0  0  0  0  0  0  0
   32.5080   33.0280   24.2110 C   0  0  0  0  0  0  0  0  0  0  0  0
   34.9740   33.9620   26.2360 H   0  0  0  0  0  0  0  0  0  0  0  0
   35.3360   32.3630   25.4180 H   0  0  0  0  0  0  0  0  0  0  0  0
   35.1280   33.3080   23.2260 H   0  0  0  0  0  0  0  0  0  0  0  0
   36.0250   34.5590   24.1970 H   0  0  0  0  0  0  0  0  0  0  0  0
   33.9520   35.8200   24.6140 H   0  0  0  0  0  0  0  0  0  0  0  0
   31.8330   35.1190   24.1960 H   0  0  0  0  0  0  0  0  0  0  0  0
   32.2060   34.4240   22.5850 H   0  0  0  0  0  0  0  0  0  0  0  0
   31.4370   32.7390   24.3860 H   0  0  0  0  0  0  0  0  0  0  0  0
   32.9490   32.3260   23.4550 H   0  0  0  0  0  0  0  0  0  0  0  0
   33.2850   32.8520   25.4650 N   0  0  0  0  0  0  0  0  0  0  0  0
   32.4660   33.0480   26.9690 S   0  0  0  0  0  0  0  0  0  0  0  0
   33.1140   32.1370   27.9310 O   0  0  0  0  0  0  0  0  0  0  0  0
   31.0540   32.6780   26.7400 O   0  0  0  0  0  0  0  0  0  0  0  0
   32.6290   34.6990   27.4660 C   0  0  0  0  0  0  0  0  0  0  0  0
   32.3820   35.4320   26.6540 H   0  0  0  0  0  0  0  0  0  0  0  0
   31.9380   34.9490   28.3180 H   0  0  0  0  0  0  0  0  0  0  0  0
   33.6590   34.9560   27.8330 H   0  0  0  0  0  0  0  0  0  0  0  0
  1  3  2  0  0  0  0
  1  7  1  0  0  0  0
  1 21  1  0  0  0  0
  2 12  1  0  0  0  0
  2 17  2  0  0  0  0
  2 18  1  0  0  0  0
  3 13  1  0  0  0  0
  3 14  1  0  0  0  0
  4 16  2  0  0  0  0
  4 19  1  0  0  0  0
  4 20  1  0  0  0  0
  5  6  1  0  0  0  0
  5 10  1  0  0  0  0
  5 11  2  0  0  0  0
  6 12  2  0  0  0  0
  6 22  1  0  0  0  0
  7  8  2  0  0  0  0
  7 27  1  0  0  0  0
  8  9  1  0  0  0  0
  8 23  1  0  0  0  0
  9 13  2  0  0  0  0
  9 24  1  0  0  0  0
 10 18  1  0  0  0  0
 10 19  2  0  0  0  0
 11 16  1  0  0  0  0
 11 25  1  0  0  0  0
 12 15  1  0  0  0  0
 13 15  1  0  0  0  0
 18 45  1  0  0  0  0
 20 26  1  0  0  0  0
 20 30  1  0  0  0  0
 28 29  1  0  0  0  0
 28 33  1  0  0  0  0
 28 34  1  0  0  0  0
 28 35  1  0  0  0  0
 29 30  1  0  0  0  0
 29 36  1  0  0  0  0
 29 37  1  0  0  0  0
 30 31  1  0  0  0  0
 30 38  1  0  0  0  0
 31 32  1  0  0  0  0
 31 39  1  0  0  0  0
 31 40  1  0  0  0  0
 32 33  1  0  0  0  0
 32 41  1  0  0  0  0
 32 42  1  0  0  0  0
 43 44  1  0  0  0  0
 43 48  1  0  0  0  0
 43 49  1  0  0  0  0
 43 57  1  0  0  0  0
 44 45  1  0  0  0  0
 44 50  1  0  0  0  0
 44 51  1  0  0  0  0
 45 46  1  0  0  0  0
 45 52  1  0  0  0  0
 46 47  1  0  0  0  0
 46 53  1  0  0  0  0
 46 54  1  0  0  0  0
 47 55  1  0  0  0  0
 47 56  1  0  0  0  0
 47 57  1  0  0  0  0
 57 58  1  0  0  0  0
 58 59  2  0  0  0  0
 58 60  2  0  0  0  0
 58 61  1  0  0  0  0
 61 62  1  0  0  0  0
 61 63  1  0  0  0  0
 61 64  1  0  0  0  0
M  END
$$$$
