p38a_2e
 OpenBabel02232411163D
Structure written by MMmdl.
 46 49  0  0  0  0  0  0  0  0999 V2000
   33.6590   37.7860   26.6680 C   0  0  0  0  0  0  0  0  0  0  0  0
   32.5970   36.8260   26.1140 C   0  0  0  0  0  0  0  0  0  0  0  0
   31.1280   38.6440   25.5350 C   0  0  0  0  0  0  0  0  0  0  0  0
   31.9970   39.6660   26.2660 C   0  0  0  0  0  0  0  0  0  0  0  0
   38.2740   36.5250   17.1030 C   0  0  0  0  0  0  0  0  0  0  0  0
   31.2510   37.3520   26.1590 O   0  0  0  0  0  0  0  0  0  0  0  0
   34.6970   35.0430   21.1430 C   0  0  0  0  0  0  0  0  0  0  0  0
   37.4870   36.0560   18.1560 C   0  0  0  0  0  0  0  0  0  0  0  0
   34.2990   39.0600   23.8140 C   0  0  0  0  0  0  0  0  0  0  0  0
   33.4890   39.2610   26.2760 C   0  0  0  0  0  0  0  0  0  0  0  0
   34.8100   37.9060   21.3520 C   0  0  0  0  0  0  0  0  0  0  0  0
   35.1060   37.2800   20.0930 C   0  0  0  0  0  0  0  0  0  0  0  0
   37.6670   36.7050   15.8540 C   0  0  0  0  0  0  0  0  0  0  0  0
   36.3250   36.4050   15.6000 C   0  0  0  0  0  0  0  0  0  0  0  0
   35.5430   35.9180   16.6490 C   0  0  0  0  0  0  0  0  0  0  0  0
   34.5850   37.1130   22.5160 C   0  0  0  0  0  0  0  0  0  0  0  0
   34.7360   39.3170   21.5130 C   0  0  0  0  0  0  0  0  0  0  0  0
   35.0810   35.9300   20.0150 C   0  0  0  0  0  0  0  0  0  0  0  0
   36.1400   35.7550   17.9040 C   0  0  0  0  0  0  0  0  0  0  0  0
   34.4870   34.8630   23.6360 C   0  0  0  0  0  0  0  0  0  0  0  0
   37.9120   35.9630   19.1560 H   0  0  0  0  0  0  0  0  0  0  0  0
   38.3880   37.2340   14.8650 F   0  0  0  0  0  0  0  0  0  0  0  0
   35.3400   35.1490   18.8940 O   0  0  0  0  0  0  0  0  0  0  0  0
   34.4850   39.9010   22.6920 N   0  0  0  0  0  0  0  0  0  0  0  0
   34.4830   33.8540   21.0670 O   0  0  0  0  0  0  0  0  0  0  0  0
   34.5970   35.7110   22.4170 N   0  0  0  0  0  0  0  0  0  0  0  0
   34.3320   37.6870   23.7400 N   0  0  0  0  0  0  0  0  0  0  0  0
   34.1700   39.7210   25.0210 N   0  0  0  0  0  0  0  0  0  0  0  0
   33.6320   37.7470   27.7890 H   0  0  0  0  0  0  0  0  0  0  0  0
   34.6710   37.4230   26.3530 H   0  0  0  0  0  0  0  0  0  0  0  0
   32.8100   36.5560   25.0570 H   0  0  0  0  0  0  0  0  0  0  0  0
   32.5150   35.9220   26.7620 H   0  0  0  0  0  0  0  0  0  0  0  0
   30.0480   38.8760   25.6590 H   0  0  0  0  0  0  0  0  0  0  0  0
   31.4130   38.5690   24.4620 H   0  0  0  0  0  0  0  0  0  0  0  0
   31.8630   40.6700   25.8020 H   0  0  0  0  0  0  0  0  0  0  0  0
   31.6720   39.7390   27.3330 H   0  0  0  0  0  0  0  0  0  0  0  0
   39.3230   36.7840   17.2660 H   0  0  0  0  0  0  0  0  0  0  0  0
   34.0130   39.8840   27.0700 H   0  0  0  0  0  0  0  0  0  0  0  0
   35.3530   37.9190   19.2430 H   0  0  0  0  0  0  0  0  0  0  0  0
   35.8810   36.5670   14.6170 H   0  0  0  0  0  0  0  0  0  0  0  0
   34.4840   35.6960   16.4890 H   0  0  0  0  0  0  0  0  0  0  0  0
   34.8720   39.9770   20.6410 H   0  0  0  0  0  0  0  0  0  0  0  0
   34.9410   35.3880   24.5200 H   0  0  0  0  0  0  0  0  0  0  0  0
   33.4110   34.6380   23.8560 H   0  0  0  0  0  0  0  0  0  0  0  0
   35.0390   33.9000   23.4780 H   0  0  0  0  0  0  0  0  0  0  0  0
   34.1230   40.7680   24.9630 H   0  0  0  0  0  0  0  0  0  0  0  0
  1  2  1  0  0  0  0
  1 10  1  0  0  0  0
  1 29  1  0  0  0  0
  1 30  1  0  0  0  0
  2  6  1  0  0  0  0
  2 31  1  0  0  0  0
  2 32  1  0  0  0  0
  3  4  1  0  0  0  0
  3  6  1  0  0  0  0
  3 33  1  0  0  0  0
  3 34  1  0  0  0  0
  4 10  1  0  0  0  0
  4 35  1  0  0  0  0
  4 36  1  0  0  0  0
  5  8  2  0  0  0  0
  5 13  1  0  0  0  0
  5 37  1  0  0  0  0
  7 18  1  0  0  0  0
  7 25  2  0  0  0  0
  7 26  1  0  0  0  0
  8 19  1  0  0  0  0
  8 21  1  0  0  0  0
  9 24  2  0  0  0  0
  9 27  1  0  0  0  0
  9 28  1  0  0  0  0
 10 28  1  0  0  0  0
 10 38  1  0  0  0  0
 11 12  1  0  0  0  0
 11 16  1  0  0  0  0
 11 17  2  0  0  0  0
 12 18  2  0  0  0  0
 12 39  1  0  0  0  0
 13 14  2  0  0  0  0
 13 22  1  0  0  0  0
 14 15  1  0  0  0  0
 14 40  1  0  0  0  0
 15 19  2  0  0  0  0
 15 41  1  0  0  0  0
 16 26  1  0  0  0  0
 16 27  2  0  0  0  0
 17 24  1  0  0  0  0
 17 42  1  0  0  0  0
 18 23  1  0  0  0  0
 19 23  1  0  0  0  0
 20 26  1  0  0  0  0
 20 43  1  0  0  0  0
 20 44  1  0  0  0  0
 20 45  1  0  0  0  0
 28 46  1  0  0  0  0
M  END
$$$$
