18639-1
 OpenBabel02232411163D
Structure written by MMmdl.
 48 49  0  0  0  0  0  0  0  0999 V2000
   23.8440   12.6250   30.3430 C   0  0  0  0  0  0  0  0  0  0  0  0
   23.3880   11.1820   30.4430 C   0  0  0  0  0  0  0  0  0  0  0  0
   22.1450   11.2770   31.2510 O   0  0  0  0  0  0  0  0  0  0  0  0
   21.5220   10.1330   31.6040 C   0  0  0  0  0  0  0  0  0  0  0  0
   22.0080    8.9470   31.1630 N   0  0  0  0  0  0  0  0  0  0  0  0
   21.2900    7.8060   31.4860 C   0  0  0  0  0  0  0  0  0  0  0  0
   20.1360    7.8350   32.2620 C   0  0  0  0  0  0  0  0  0  0  0  0
   19.6430    9.0810   32.7340 C   0  0  0  0  0  0  0  0  0  0  0  0
   18.4960    9.1130   33.4850 N   0  0  0  0  0  0  0  0  0  0  0  0
   20.3460   10.2830   32.3980 C   0  0  0  0  0  0  0  0  0  0  0  0
   19.9280   11.5790   32.7660 C   0  0  0  0  0  0  0  0  0  0  0  0
   19.6340   12.6700   33.0270 N   0  0  0  0  0  0  0  0  0  0  0  0
   21.8660    6.6410   30.9260 N   0  0  0  0  0  0  0  0  0  0  0  0
   21.2640    5.3680   30.8450 C   0  0  0  0  0  0  0  0  0  0  0  0
   20.1730    5.1230   31.3170 O   0  0  0  0  0  0  0  0  0  0  0  0
   22.0750    4.3590   30.0410 C   0  0  0  0  0  0  0  0  0  0  0  0
   23.4310    4.0580   30.6080 C   0  0  0  0  0  0  0  0  0  0  0  0
   24.5460    4.8990   30.2980 C   0  0  0  0  0  0  0  0  0  0  0  0
   24.2130    5.9500   29.4550 O   0  0  0  0  0  0  0  0  0  0  0  0
   25.1950    7.0090   29.2780 C   0  0  0  0  0  0  0  0  0  0  0  0
   25.8170    4.6340   30.7840 C   0  0  0  0  0  0  0  0  0  0  0  0
   26.0200    3.5130   31.6170 C   0  0  0  0  0  0  0  0  0  0  0  0
   27.3630    3.2340   32.1330 N   0  3  0  0  0  0  0  0  0  0  0  0
   27.4730    2.4410   33.0560 O   0  5  0  0  0  0  0  0  0  0  0  0
   28.3180    3.7990   31.6140 O   0  0  0  0  0  0  0  0  0  0  0  0
   24.9300    2.6670   31.9260 C   0  0  0  0  0  0  0  0  0  0  0  0
   23.6440    2.9460   31.4060 C   0  0  0  0  0  0  0  0  0  0  0  0
   25.2520    1.6210   32.7380 O   0  0  0  0  0  0  0  0  0  0  0  0
   24.2360    0.5970   32.9590 C   0  0  0  0  0  0  0  0  0  0  0  0
   24.7470   12.6680   29.6840 H   0  0  0  0  0  0  0  0  0  0  0  0
   23.0510   13.2640   29.8880 H   0  0  0  0  0  0  0  0  0  0  0  0
   24.1100   13.0380   31.3420 H   0  0  0  0  0  0  0  0  0  0  0  0
   23.1120   10.7510   29.4550 H   0  0  0  0  0  0  0  0  0  0  0  0
   24.1140   10.5390   30.9910 H   0  0  0  0  0  0  0  0  0  0  0  0
   19.5910    6.9180   32.4960 H   0  0  0  0  0  0  0  0  0  0  0  0
   17.9990    8.2370   33.7390 H   0  0  0  0  0  0  0  0  0  0  0  0
   18.0850    9.9950   33.7920 H   0  0  0  0  0  0  0  0  0  0  0  0
   22.7860    6.7820   30.4400 H   0  0  0  0  0  0  0  0  0  0  0  0
   21.4830    3.4070   29.9690 H   0  0  0  0  0  0  0  0  0  0  0  0
   22.2030    4.7760   29.0020 H   0  0  0  0  0  0  0  0  0  0  0  0
   25.5240    7.4050   30.2630 H   0  0  0  0  0  0  0  0  0  0  0  0
   26.0400    6.6250   28.6690 H   0  0  0  0  0  0  0  0  0  0  0  0
   24.5990    7.7670   28.7200 H   0  0  0  0  0  0  0  0  0  0  0  0
   26.6710    5.2700   30.5230 H   0  0  0  0  0  0  0  0  0  0  0  0
   22.8120    2.2740   31.6350 H   0  0  0  0  0  0  0  0  0  0  0  0
   24.8010   -0.1450   33.5730 H   0  0  0  0  0  0  0  0  0  0  0  0
   23.3830    1.0210   33.5300 H   0  0  0  0  0  0  0  0  0  0  0  0
   23.9230    0.1560   31.9880 H   0  0  0  0  0  0  0  0  0  0  0  0
  1  2  1  0  0  0  0
  1 30  1  0  0  0  0
  1 31  1  0  0  0  0
  1 32  1  0  0  0  0
  2  3  1  0  0  0  0
  2 33  1  0  0  0  0
  2 34  1  0  0  0  0
  3  4  1  0  0  0  0
  4 10  2  0  0  0  0
  4  5  1  0  0  0  0
  5  6  2  0  0  0  0
  6  7  1  0  0  0  0
  6 13  1  0  0  0  0
  7  8  2  0  0  0  0
  7 35  1  0  0  0  0
  8  9  1  0  0  0  0
  8 10  1  0  0  0  0
  9 36  1  0  0  0  0
  9 37  1  0  0  0  0
 10 11  1  0  0  0  0
 11 12  3  0  0  0  0
 13 14  1  0  0  0  0
 13 38  1  0  0  0  0
 14 15  2  0  0  0  0
 14 16  1  0  0  0  0
 16 17  1  0  0  0  0
 16 39  1  0  0  0  0
 16 40  1  0  0  0  0
 17 27  2  0  0  0  0
 17 18  1  0  0  0  0
 18 19  1  0  0  0  0
 18 21  2  0  0  0  0
 19 20  1  0  0  0  0
 20 41  1  0  0  0  0
 20 42  1  0  0  0  0
 20 43  1  0  0  0  0
 21 22  1  0  0  0  0
 21 44  1  0  0  0  0
 22 23  1  0  0  0  0
 22 26  2  0  0  0  0
 23 24  1  0  0  0  0
 23 25  2  0  0  0  0
 26 27  1  0  0  0  0
 26 28  1  0  0  0  0
 27 45  1  0  0  0  0
 28 29  1  0  0  0  0
 29 46  1  0  0  0  0
 29 47  1  0  0  0  0
 29 48  1  0  0  0  0
M  CHG  2  23   1  24  -1
M  END
$$$$
