p38a_3flw
 OpenBabel02232411163D
Structure written by MMmdl.
 49 51  0  0  0  0  0  0  0  0999 V2000
   38.2640   36.5360   17.1670 C   0  0  0  0  0  0  0  0  0  0  0  0
   37.6230   36.6980   15.9300 C   0  0  0  0  0  0  0  0  0  0  0  0
   33.7600   39.7600   27.5370 C   0  0  0  0  0  0  0  0  0  0  0  0
   35.2790   39.9310   27.6630 C   0  0  0  0  0  0  0  0  0  0  0  0
   31.7320   39.4180   26.1000 C   0  0  0  0  0  0  0  0  0  0  0  0
   34.3800   35.0770   23.8150 C   0  0  0  0  0  0  0  0  0  0  0  0
   37.9970   35.9540   19.4310 F   0  0  0  0  0  0  0  0  0  0  0  0
   37.4690   36.0960   18.2220 C   0  0  0  0  0  0  0  0  0  0  0  0
   38.3320   37.1850   14.9150 F   0  0  0  0  0  0  0  0  0  0  0  0
   36.2720   36.4130   15.7200 C   0  0  0  0  0  0  0  0  0  0  0  0
   35.4980   35.9620   16.7940 C   0  0  0  0  0  0  0  0  0  0  0  0
   36.1010   35.7990   18.0440 C   0  0  0  0  0  0  0  0  0  0  0  0
   35.3590   35.1990   19.0700 O   0  0  0  0  0  0  0  0  0  0  0  0
   35.0570   36.0190   20.1570 C   0  0  0  0  0  0  0  0  0  0  0  0
   35.0470   37.3710   20.1880 C   0  0  0  0  0  0  0  0  0  0  0  0
   34.7450   38.0300   21.4300 C   0  0  0  0  0  0  0  0  0  0  0  0
   34.6380   39.4390   21.5540 C   0  0  0  0  0  0  0  0  0  0  0  0
   34.3640   40.0490   22.7200 N   0  0  0  0  0  0  0  0  0  0  0  0
   34.6890   35.1540   21.3110 C   0  0  0  0  0  0  0  0  0  0  0  0
   34.5030   33.9580   21.2630 O   0  0  0  0  0  0  0  0  0  0  0  0
   34.5570   35.8570   22.5580 N   0  0  0  0  0  0  0  0  0  0  0  0
   34.5440   37.2600   22.6170 C   0  0  0  0  0  0  0  0  0  0  0  0
   34.3190   37.8590   23.8310 N   0  0  0  0  0  0  0  0  0  0  0  0
   34.2000   39.2280   23.8500 C   0  0  0  0  0  0  0  0  0  0  0  0
   33.9730   39.8720   25.0620 N   0  0  0  0  0  0  0  0  0  0  0  0
   33.2630   39.1890   26.1830 C   0  0  0  0  0  0  0  0  0  0  0  0
   31.0550   39.0380   24.7800 C   0  0  0  0  0  0  0  0  0  0  0  0
   31.2710   37.6800   24.3730 O   0  0  0  0  0  0  0  0  0  0  0  0
   35.6540   41.3020   27.4010 O   0  0  0  0  0  0  0  0  0  0  0  0
   39.3220   36.7790   17.3030 H   0  0  0  0  0  0  0  0  0  0  0  0
   33.4010   39.0600   28.3350 H   0  0  0  0  0  0  0  0  0  0  0  0
   33.2830   40.7550   27.7240 H   0  0  0  0  0  0  0  0  0  0  0  0
   35.6150   39.7710   28.7120 H   0  0  0  0  0  0  0  0  0  0  0  0
   35.8250   39.2760   26.9480 H   0  0  0  0  0  0  0  0  0  0  0  0
   31.2640   38.8440   26.9400 H   0  0  0  0  0  0  0  0  0  0  0  0
   31.5280   40.5040   26.2720 H   0  0  0  0  0  0  0  0  0  0  0  0
   33.4070   35.3450   24.3100 H   0  0  0  0  0  0  0  0  0  0  0  0
   34.3870   33.9790   23.5940 H   0  0  0  0  0  0  0  0  0  0  0  0
   35.2120   35.3180   24.5310 H   0  0  0  0  0  0  0  0  0  0  0  0
   35.8100   36.5540   14.7400 H   0  0  0  0  0  0  0  0  0  0  0  0
   34.4320   35.7560   16.6470 H   0  0  0  0  0  0  0  0  0  0  0  0
   35.2700   37.9890   19.3150 H   0  0  0  0  0  0  0  0  0  0  0  0
   34.7590   40.0840   20.6680 H   0  0  0  0  0  0  0  0  0  0  0  0
   33.8170   40.8980   25.0430 H   0  0  0  0  0  0  0  0  0  0  0  0
   33.4840   38.0880   26.1500 H   0  0  0  0  0  0  0  0  0  0  0  0
   29.9530   39.1890   24.8760 H   0  0  0  0  0  0  0  0  0  0  0  0
   31.4710   39.6180   23.9260 H   0  0  0  0  0  0  0  0  0  0  0  0
   31.2080   37.0840   25.1550 H   0  0  0  0  0  0  0  0  0  0  0  0
   35.1660   41.5820   26.5800 H   0  0  0  0  0  0  0  0  0  0  0  0
  1  2  2  0  0  0  0
  1  8  1  0  0  0  0
  1 30  1  0  0  0  0
  2  9  1  0  0  0  0
  2 10  1  0  0  0  0
  3  4  1  0  0  0  0
  3 26  1  0  0  0  0
  3 31  1  0  0  0  0
  3 32  1  0  0  0  0
  4 29  1  0  0  0  0
  4 33  1  0  0  0  0
  4 34  1  0  0  0  0
  5 26  1  0  0  0  0
  5 27  1  0  0  0  0
  5 35  1  0  0  0  0
  5 36  1  0  0  0  0
  6 21  1  0  0  0  0
  6 37  1  0  0  0  0
  6 38  1  0  0  0  0
  6 39  1  0  0  0  0
  7  8  1  0  0  0  0
  8 12  2  0  0  0  0
 10 11  2  0  0  0  0
 10 40  1  0  0  0  0
 11 12  1  0  0  0  0
 11 41  1  0  0  0  0
 12 13  1  0  0  0  0
 13 14  1  0  0  0  0
 14 15  2  0  0  0  0
 14 19  1  0  0  0  0
 15 16  1  0  0  0  0
 15 42  1  0  0  0  0
 16 17  2  0  0  0  0
 16 22  1  0  0  0  0
 17 18  1  0  0  0  0
 17 43  1  0  0  0  0
 18 24  2  0  0  0  0
 19 20  2  0  0  0  0
 19 21  1  0  0  0  0
 21 22  1  0  0  0  0
 22 23  2  0  0  0  0
 23 24  1  0  0  0  0
 24 25  1  0  0  0  0
 25 26  1  0  0  0  0
 25 44  1  0  0  0  0
 26 45  1  0  0  0  0
 27 28  1  0  0  0  0
 27 46  1  0  0  0  0
 27 47  1  0  0  0  0
 28 48  1  0  0  0  0
 29 49  1  0  0  0  0
M  END
$$$$
