CAT-24
 OpenBabel02232411143D
Structure written by MMmdl.
 47 50  0  0  1  0  0  0  0  0999 V2000
   10.2900    5.7460   -4.4900 C   0  0  0  0  0  0  0  0  0  0  0  0
   11.4300    5.1270   -3.8910 C   0  0  0  0  0  0  0  0  0  0  0  0
   12.3940    4.6030   -3.3810 C   0  0  0  0  0  0  0  0  0  0  0  0
   13.5100    4.0170   -2.7500 C   0  0  0  0  0  0  0  0  0  0  0  0
   14.2590    4.7660   -1.8030 C   0  0  0  0  0  0  0  0  0  0  0  0
   15.3200    4.2520   -1.1420 N   0  0  0  0  0  0  0  0  0  0  0  0
   15.6740    2.9620   -1.3850 C   0  0  0  0  0  0  0  0  0  0  0  0
   14.9870    2.1550   -2.3150 C   0  0  0  0  0  0  0  0  0  0  0  0
   15.3970    0.7490   -2.5170 C   0  0  0  0  0  0  0  0  0  0  0  0
   16.2620    0.3870   -3.5640 C   0  0  0  0  0  0  0  0  0  0  0  0
   16.6780   -0.9390   -3.6970 C   0  0  0  0  0  0  0  0  0  0  0  0
   16.2210   -1.9210   -2.8120 C   0  0  0  0  0  0  0  0  0  0  0  0
   15.3210   -1.5720   -1.7990 C   0  0  0  0  0  0  0  0  0  0  0  0
   14.7560   -2.6130   -0.8590 C   0  0  1  0  0  0  0  0  0  0  0  0
   15.0020   -4.0630   -1.2480 C   0  0  0  0  0  0  0  0  0  0  0  0
   16.2320   -4.8070   -0.7600 C   0  0  0  0  0  0  0  0  0  0  0  0
   14.8700   -5.1800   -0.2190 C   0  0  0  0  0  0  0  0  0  0  0  0
   15.2120   -2.2940    0.5460 N   0  3  0  0  0  0  0  0  0  0  0  0
   14.1290   -2.3870    1.4300 C   0  0  0  0  0  0  0  0  0  0  0  0
   14.2890   -2.5010    2.7800 N   0  0  0  0  0  0  0  0  0  0  0  0
   12.9340   -2.3900    0.7190 N   0  0  0  0  0  0  0  0  0  0  0  0
   11.5950   -2.4930    1.3370 C   0  0  0  0  0  0  0  0  0  0  0  0
   13.2010   -2.4730   -0.7360 C   0  0  0  0  0  0  0  0  0  0  0  0
   12.3280   -2.4310   -1.5400 O   0  0  0  0  0  0  0  0  0  0  0  0
   14.9210   -0.2350   -1.6420 C   0  0  0  0  0  0  0  0  0  0  0  0
   13.8980    2.6930   -3.0120 C   0  0  0  0  0  0  0  0  0  0  0  0
    9.5350    6.0380   -3.7080 H   0  0  0  0  0  0  0  0  0  0  0  0
   10.5860    6.6780   -5.0480 H   0  0  0  0  0  0  0  0  0  0  0  0
    9.7860    5.0530   -5.2170 H   0  0  0  0  0  0  0  0  0  0  0  0
   13.9770    5.8050   -1.5720 H   0  0  0  0  0  0  0  0  0  0  0  0
   16.5230    2.5580   -0.8160 H   0  0  0  0  0  0  0  0  0  0  0  0
   16.6140    1.1410   -4.2750 H   0  0  0  0  0  0  0  0  0  0  0  0
   17.3710   -1.2180   -4.4980 H   0  0  0  0  0  0  0  0  0  0  0  0
   16.5700   -2.9510   -2.9090 H   0  0  0  0  0  0  0  0  0  0  0  0
   14.6530   -4.2770   -2.2750 H   0  0  0  0  0  0  0  0  0  0  0  0
   16.7560   -5.4640   -1.4540 H   0  0  0  0  0  0  0  0  0  0  0  0
   16.9460   -4.2970   -0.1100 H   0  0  0  0  0  0  0  0  0  0  0  0
   14.6310   -4.9330    0.8220 H   0  0  0  0  0  0  0  0  0  0  0  0
   14.3970   -6.1200   -0.5330 H   0  0  0  0  0  0  0  0  0  0  0  0
   16.1520   -2.6320    0.8930 H   0  0  0  0  0  0  0  0  0  0  0  0
   13.5780   -2.1120    3.4480 H   0  0  0  0  0  0  0  0  0  0  0  0
   11.0230   -3.3260    0.8430 H   0  0  0  0  0  0  0  0  0  0  0  0
   11.6730   -2.7240    2.4310 H   0  0  0  0  0  0  0  0  0  0  0  0
   11.0480   -1.5220    1.1990 H   0  0  0  0  0  0  0  0  0  0  0  0
   14.2470    0.0370   -0.8300 H   0  0  0  0  0  0  0  0  0  0  0  0
   13.3550    2.0840   -3.7420 H   0  0  0  0  0  0  0  0  0  0  0  0
   15.2720   -2.4190    3.1690 H   0  0  0  0  0  0  0  0  0  0  0  0
  1  2  1  0  0  0  0
  1 27  1  0  0  0  0
  1 28  1  0  0  0  0
  1 29  1  0  0  0  0
  2  3  3  0  0  0  0
  3  4  1  0  0  0  0
  4  5  2  0  0  0  0
  4 26  1  0  0  0  0
  5  6  1  0  0  0  0
  5 30  1  0  0  0  0
  6  7  2  0  0  0  0
  7  8  1  0  0  0  0
  7 31  1  0  0  0  0
  8  9  1  0  0  0  0
  8 26  2  0  0  0  0
  9 10  2  0  0  0  0
  9 25  1  0  0  0  0
 10 11  1  0  0  0  0
 10 32  1  0  0  0  0
 11 12  2  0  0  0  0
 11 33  1  0  0  0  0
 12 13  1  0  0  0  0
 12 34  1  0  0  0  0
 13 25  2  0  0  0  0
 14 13  1  6  0  0  0
 14 15  1  0  0  0  0
 14 18  1  0  0  0  0
 14 23  1  0  0  0  0
 15 16  1  0  0  0  0
 15 17  1  0  0  0  0
 15 35  1  0  0  0  0
 16 17  1  0  0  0  0
 16 36  1  0  0  0  0
 16 37  1  0  0  0  0
 17 38  1  0  0  0  0
 17 39  1  0  0  0  0
 18 19  2  0  0  0  0
 18 40  1  0  0  0  0
 19 20  1  0  0  0  0
 19 21  1  0  0  0  0
 20 41  1  0  0  0  0
 20 47  1  0  0  0  0
 21 22  1  0  0  0  0
 21 23  1  0  0  0  0
 22 42  1  0  0  0  0
 22 43  1  0  0  0  0
 22 44  1  0  0  0  0
 23 24  2  0  0  0  0
 25 45  1  0  0  0  0
 26 46  1  0  0  0  0
M  CHG  1  18   1
M  END
$$$$
