CAT-17i
 OpenBabel02232411143D
Structure written by MMmdl.
 45 48  0  0  1  0  0  0  0  0999 V2000
   15.1720    4.3780    0.9350 C   0  0  0  0  0  0  0  0  0  0  0  0
   15.1160    3.9340   -0.4880 C   0  0  0  0  0  0  0  0  0  0  0  0
   14.6610    4.7870   -1.5220 C   0  0  0  0  0  0  0  0  0  0  0  0
   14.5870    4.3980   -2.8170 N   0  0  0  0  0  0  0  0  0  0  0  0
   14.9250    3.1230   -3.1400 C   0  0  0  0  0  0  0  0  0  0  0  0
   15.3490    2.1920   -2.1690 C   0  0  0  0  0  0  0  0  0  0  0  0
   15.6200    0.7780   -2.4950 C   0  0  0  0  0  0  0  0  0  0  0  0
   16.3890    0.3950   -3.6070 C   0  0  0  0  0  0  0  0  0  0  0  0
   16.6910   -0.9520   -3.8180 C   0  0  0  0  0  0  0  0  0  0  0  0
   16.2200   -1.9390   -2.9450 C   0  0  0  0  0  0  0  0  0  0  0  0
   15.4040   -1.5710   -1.8690 C   0  0  0  0  0  0  0  0  0  0  0  0
   14.8200   -2.5980   -0.9240 C   0  0  1  0  0  0  0  0  0  0  0  0
   15.0620   -4.0520   -1.2970 C   0  0  0  0  0  0  0  0  0  0  0  0
   16.3050   -4.7780   -0.8130 C   0  0  0  0  0  0  0  0  0  0  0  0
   14.9530   -5.1580   -0.2530 C   0  0  0  0  0  0  0  0  0  0  0  0
   15.2560   -2.2780    0.4890 N   0  3  0  0  0  0  0  0  0  0  0  0
   14.1620   -2.3650    1.3600 C   0  0  0  0  0  0  0  0  0  0  0  0
   14.2990   -2.4780    2.7150 N   0  0  0  0  0  0  0  0  0  0  0  0
   12.9760   -2.3670    0.6310 N   0  0  0  0  0  0  0  0  0  0  0  0
   11.6420   -2.5340    1.2450 C   0  0  0  0  0  0  0  0  0  0  0  0
   13.2650   -2.4400   -0.8200 C   0  0  0  0  0  0  0  0  0  0  0  0
   12.4060   -2.3800   -1.6380 O   0  0  0  0  0  0  0  0  0  0  0  0
   15.1040   -0.2190   -1.6510 C   0  0  0  0  0  0  0  0  0  0  0  0
   15.4720    2.6270   -0.8390 C   0  0  0  0  0  0  0  0  0  0  0  0
   14.2930    3.9580    1.4830 H   0  0  0  0  0  0  0  0  0  0  0  0
   16.0940    3.9920    1.4380 H   0  0  0  0  0  0  0  0  0  0  0  0
   15.1510    5.4880    1.0320 H   0  0  0  0  0  0  0  0  0  0  0  0
   14.3320    5.8130   -1.2970 H   0  0  0  0  0  0  0  0  0  0  0  0
   14.8380    2.8360   -4.2010 H   0  0  0  0  0  0  0  0  0  0  0  0
   16.7620    1.1450   -4.3100 H   0  0  0  0  0  0  0  0  0  0  0  0
   17.3140   -1.2420   -4.6720 H   0  0  0  0  0  0  0  0  0  0  0  0
   16.4930   -2.9830   -3.1030 H   0  0  0  0  0  0  0  0  0  0  0  0
   14.6970   -4.2830   -2.3140 H   0  0  0  0  0  0  0  0  0  0  0  0
   16.8320   -5.4350   -1.5030 H   0  0  0  0  0  0  0  0  0  0  0  0
   17.0170   -4.2480   -0.1750 H   0  0  0  0  0  0  0  0  0  0  0  0
   14.7230   -4.8990    0.7880 H   0  0  0  0  0  0  0  0  0  0  0  0
   14.4840   -6.1050   -0.5490 H   0  0  0  0  0  0  0  0  0  0  0  0
   16.1910   -2.6070    0.8530 H   0  0  0  0  0  0  0  0  0  0  0  0
   13.5750   -2.0920    3.3720 H   0  0  0  0  0  0  0  0  0  0  0  0
   10.8810   -1.9850    0.6270 H   0  0  0  0  0  0  0  0  0  0  0  0
   11.3820   -3.6260    1.2960 H   0  0  0  0  0  0  0  0  0  0  0  0
   11.6380   -2.1120    2.2800 H   0  0  0  0  0  0  0  0  0  0  0  0
   14.4700    0.0540   -0.8100 H   0  0  0  0  0  0  0  0  0  0  0  0
   15.8340    1.9340   -0.0760 H   0  0  0  0  0  0  0  0  0  0  0  0
   15.2760   -2.3910    3.1200 H   0  0  0  0  0  0  0  0  0  0  0  0
  1  2  1  0  0  0  0
  1 25  1  0  0  0  0
  1 26  1  0  0  0  0
  1 27  1  0  0  0  0
  2  3  2  0  0  0  0
  2 24  1  0  0  0  0
  3  4  1  0  0  0  0
  3 28  1  0  0  0  0
  4  5  2  0  0  0  0
  5  6  1  0  0  0  0
  5 29  1  0  0  0  0
  6  7  1  0  0  0  0
  6 24  2  0  0  0  0
  7  8  2  0  0  0  0
  7 23  1  0  0  0  0
  8  9  1  0  0  0  0
  8 30  1  0  0  0  0
  9 10  2  0  0  0  0
  9 31  1  0  0  0  0
 10 11  1  0  0  0  0
 10 32  1  0  0  0  0
 11 23  2  0  0  0  0
 12 11  1  6  0  0  0
 12 13  1  0  0  0  0
 12 16  1  0  0  0  0
 12 21  1  0  0  0  0
 13 14  1  0  0  0  0
 13 15  1  0  0  0  0
 13 33  1  0  0  0  0
 14 15  1  0  0  0  0
 14 34  1  0  0  0  0
 14 35  1  0  0  0  0
 15 36  1  0  0  0  0
 15 37  1  0  0  0  0
 16 17  2  0  0  0  0
 16 38  1  0  0  0  0
 17 18  1  0  0  0  0
 17 19  1  0  0  0  0
 18 39  1  0  0  0  0
 18 45  1  0  0  0  0
 19 20  1  0  0  0  0
 19 21  1  0  0  0  0
 20 40  1  0  0  0  0
 20 41  1  0  0  0  0
 20 42  1  0  0  0  0
 21 22  2  0  0  0  0
 23 43  1  0  0  0  0
 24 44  1  0  0  0  0
M  CHG  1  16   1
M  END
$$$$
