p38a_2u
 OpenBabel02232411163D
Structure written by MMmdl.
 64 68  0  0  0  0  0  0  0  0999 V2000
   38.2710   36.5340   17.1810 C   0  0  0  0  0  0  0  0  0  0  0  0
   34.5360   35.1010   21.2870 C   0  0  0  0  0  0  0  0  0  0  0  0
   37.5000   36.0860   18.2500 C   0  0  0  0  0  0  0  0  0  0  0  0
   33.9920   39.2070   23.7880 C   0  0  0  0  0  0  0  0  0  0  0  0
   34.6350   37.9780   21.4060 C   0  0  0  0  0  0  0  0  0  0  0  0
   35.0470   37.3120   20.2020 C   0  0  0  0  0  0  0  0  0  0  0  0
   37.6130   36.6730   15.9520 C   0  0  0  0  0  0  0  0  0  0  0  0
   36.2650   36.3600   15.7600 C   0  0  0  0  0  0  0  0  0  0  0  0
   35.5150   35.8980   16.8470 C   0  0  0  0  0  0  0  0  0  0  0  0
   34.2430   37.2160   22.5460 C   0  0  0  0  0  0  0  0  0  0  0  0
   34.6230   39.3940   21.5390 C   0  0  0  0  0  0  0  0  0  0  0  0
   35.0320   35.9600   20.1740 C   0  0  0  0  0  0  0  0  0  0  0  0
   36.1380   35.7530   18.0900 C   0  0  0  0  0  0  0  0  0  0  0  0
   38.0450   35.9700   19.4540 F   0  0  0  0  0  0  0  0  0  0  0  0
   35.4310   35.1310   19.1270 O   0  0  0  0  0  0  0  0  0  0  0  0
   34.3190   40.0210   22.6840 N   0  0  0  0  0  0  0  0  0  0  0  0
   34.4340   33.8950   21.2190 O   0  0  0  0  0  0  0  0  0  0  0  0
   34.1570   35.8080   22.4810 N   0  0  0  0  0  0  0  0  0  0  0  0
   33.9390   37.8270   23.7340 N   0  0  0  0  0  0  0  0  0  0  0  0
   33.6470   39.8280   24.9650 N   0  0  0  0  0  0  0  0  0  0  0  0
   39.3250   36.8000   17.3030 H   0  0  0  0  0  0  0  0  0  0  0  0
   35.3710   37.9210   19.3560 H   0  0  0  0  0  0  0  0  0  0  0  0
   35.7860   36.4850   14.7860 H   0  0  0  0  0  0  0  0  0  0  0  0
   34.4510   35.6700   16.7200 H   0  0  0  0  0  0  0  0  0  0  0  0
   34.8720   40.0240   20.6690 H   0  0  0  0  0  0  0  0  0  0  0  0
   33.7900   40.8510   25.0680 H   0  0  0  0  0  0  0  0  0  0  0  0
   38.2990   37.1650   14.9230 F   0  0  0  0  0  0  0  0  0  0  0  0
   32.3410   39.1390   28.4900 C   0  0  0  0  0  0  0  0  0  0  0  0
   32.4710   39.8390   27.1320 C   0  0  0  0  0  0  0  0  0  0  0  0
   33.4650   39.0660   26.2410 C   0  0  0  0  0  0  0  0  0  0  0  0
   34.8150   38.8900   26.9700 C   0  0  0  0  0  0  0  0  0  0  0  0
   34.5820   38.2370   28.3380 C   0  0  0  0  0  0  0  0  0  0  0  0
   33.6250   38.9740   29.1330 O   0  0  0  0  0  0  0  0  0  0  0  0
   31.8590   38.1400   28.3770 H   0  0  0  0  0  0  0  0  0  0  0  0
   31.7950   39.7800   29.2200 H   0  0  0  0  0  0  0  0  0  0  0  0
   32.8320   40.8850   27.2850 H   0  0  0  0  0  0  0  0  0  0  0  0
   31.4760   39.8830   26.6300 H   0  0  0  0  0  0  0  0  0  0  0  0
   33.0350   38.0530   25.9970 H   0  0  0  0  0  0  0  0  0  0  0  0
   35.4890   38.2350   26.3670 H   0  0  0  0  0  0  0  0  0  0  0  0
   35.3110   39.8810   27.0980 H   0  0  0  0  0  0  0  0  0  0  0  0
   34.2250   37.1870   28.2190 H   0  0  0  0  0  0  0  0  0  0  0  0
   35.5000   38.2860   28.9680 H   0  0  0  0  0  0  0  0  0  0  0  0
   34.3650   33.5820   25.6340 C   0  0  0  0  0  0  0  0  0  0  0  0
   34.8180   34.1820   24.2820 C   0  0  0  0  0  0  0  0  0  0  0  0
   33.6820   35.0430   23.7010 C   0  0  0  0  0  0  0  0  0  0  0  0
   32.4330   34.1960   23.3790 C   0  0  0  0  0  0  0  0  0  0  0  0
   32.3200   32.9840   24.3340 C   0  0  0  0  0  0  0  0  0  0  0  0
   34.5930   34.3160   26.4540 H   0  0  0  0  0  0  0  0  0  0  0  0
   34.9580   32.6420   25.8000 H   0  0  0  0  0  0  0  0  0  0  0  0
   35.0810   33.3570   23.5800 H   0  0  0  0  0  0  0  0  0  0  0  0
   35.7260   34.8010   24.4660 H   0  0  0  0  0  0  0  0  0  0  0  0
   33.3930   35.7990   24.4930 H   0  0  0  0  0  0  0  0  0  0  0  0
   31.5290   34.8440   23.4860 H   0  0  0  0  0  0  0  0  0  0  0  0
   32.4590   33.8010   22.3360 H   0  0  0  0  0  0  0  0  0  0  0  0
   31.2360   32.7180   24.4450 H   0  0  0  0  0  0  0  0  0  0  0  0
   32.8730   32.1090   23.8950 H   0  0  0  0  0  0  0  0  0  0  0  0
   32.8940   33.3150   25.6700 N   0  0  0  0  0  0  0  0  0  0  0  0
   32.2250   32.6080   27.0830 S   0  0  0  0  0  0  0  0  0  0  0  0
   30.9190   32.0260   26.7090 O   0  0  0  0  0  0  0  0  0  0  0  0
   32.0940   33.6420   28.1240 O   0  0  0  0  0  0  0  0  0  0  0  0
   33.3240   31.3760   27.6200 C   0  0  0  0  0  0  0  0  0  0  0  0
   33.6310   30.6820   26.7950 H   0  0  0  0  0  0  0  0  0  0  0  0
   34.2580   31.7960   28.0720 H   0  0  0  0  0  0  0  0  0  0  0  0
   32.8620   30.7280   28.4140 H   0  0  0  0  0  0  0  0  0  0  0  0
  1  3  2  0  0  0  0
  1  7  1  0  0  0  0
  1 21  1  0  0  0  0
  2 12  1  0  0  0  0
  2 17  2  0  0  0  0
  2 18  1  0  0  0  0
  3 13  1  0  0  0  0
  3 14  1  0  0  0  0
  4 16  2  0  0  0  0
  4 19  1  0  0  0  0
  4 20  1  0  0  0  0
  5  6  1  0  0  0  0
  5 10  1  0  0  0  0
  5 11  2  0  0  0  0
  6 12  2  0  0  0  0
  6 22  1  0  0  0  0
  7  8  2  0  0  0  0
  7 27  1  0  0  0  0
  8  9  1  0  0  0  0
  8 23  1  0  0  0  0
  9 13  2  0  0  0  0
  9 24  1  0  0  0  0
 10 18  1  0  0  0  0
 10 19  2  0  0  0  0
 11 16  1  0  0  0  0
 11 25  1  0  0  0  0
 12 15  1  0  0  0  0
 13 15  1  0  0  0  0
 18 45  1  0  0  0  0
 20 26  1  0  0  0  0
 20 30  1  0  0  0  0
 28 29  1  0  0  0  0
 28 33  1  0  0  0  0
 28 34  1  0  0  0  0
 28 35  1  0  0  0  0
 29 30  1  0  0  0  0
 29 36  1  0  0  0  0
 29 37  1  0  0  0  0
 30 31  1  0  0  0  0
 30 38  1  0  0  0  0
 31 32  1  0  0  0  0
 31 39  1  0  0  0  0
 31 40  1  0  0  0  0
 32 33  1  0  0  0  0
 32 41  1  0  0  0  0
 32 42  1  0  0  0  0
 43 44  1  0  0  0  0
 43 48  1  0  0  0  0
 43 49  1  0  0  0  0
 43 57  1  0  0  0  0
 44 45  1  0  0  0  0
 44 50  1  0  0  0  0
 44 51  1  0  0  0  0
 45 46  1  0  0  0  0
 45 52  1  0  0  0  0
 46 47  1  0  0  0  0
 46 53  1  0  0  0  0
 46 54  1  0  0  0  0
 47 55  1  0  0  0  0
 47 56  1  0  0  0  0
 47 57  1  0  0  0  0
 57 58  1  0  0  0  0
 58 59  2  0  0  0  0
 58 60  2  0  0  0  0
 58 61  1  0  0  0  0
 61 62  1  0  0  0  0
 61 63  1  0  0  0  0
 61 64  1  0  0  0  0
M  END
$$$$
