30
 OpenBabel02232411153D
Structure written by MMmdl.
 51 54  0  0  0  0  0  0  0  0999 V2000
    1.8800   28.8520    6.7920 C   0  0  0  0  0  0  0  0  0  0  0  0
   -1.5780   31.4720    7.9600 C   0  0  0  0  0  0  0  0  0  0  0  0
   -0.1010   25.9970    8.9160 C   0  0  0  0  0  0  0  0  0  0  0  0
   -0.8900   25.3000   10.0320 C   0  0  0  0  0  0  0  0  0  0  0  0
   -0.6840   23.7780    9.8510 C   0  0  0  0  0  0  0  0  0  0  0  0
   -1.3290   22.9850   10.9960 C   0  0  0  0  0  0  0  0  0  0  0  0
   -0.8210   23.4640   12.3650 C   0  0  0  0  0  0  0  0  0  0  0  0
   -1.0620   24.9700   12.5500 C   0  0  0  0  0  0  0  0  0  0  0  0
   -0.4150   25.7800   11.4170 C   0  0  0  0  0  0  0  0  0  0  0  0
    5.4880   25.7350    5.5240 C   0  0  0  0  0  0  0  0  0  0  0  0
    5.3350   24.8830    6.6250 C   0  0  0  0  0  0  0  0  0  0  0  0
    4.4520   25.2570    7.6490 C   0  0  0  0  0  0  0  0  0  0  0  0
    3.7080   26.4330    7.5740 C   0  0  0  0  0  0  0  0  0  0  0  0
    1.1710   27.9060    7.5220 N   0  0  0  0  0  0  0  0  0  0  0  0
   -0.0240   28.2440    8.0750 C   0  0  0  0  0  0  0  0  0  0  0  0
   -0.7080   27.3480    8.8020 O   0  0  0  0  0  0  0  0  0  0  0  0
   -0.5440   29.5530    7.8990 C   0  0  0  0  0  0  0  0  0  0  0  0
   -1.6880   30.2060    8.3720 N   0  0  0  0  0  0  0  0  0  0  0  0
   -0.3670   31.7010    7.2160 N   0  0  0  0  0  0  0  0  0  0  0  0
    0.2900   30.4770    7.1470 C   0  0  0  0  0  0  0  0  0  0  0  0
    1.4840   30.1560    6.5490 N   0  0  0  0  0  0  0  0  0  0  0  0
    3.0940   28.4590    6.2280 N   0  0  0  0  0  0  0  0  0  0  0  0
    3.8190   27.2520    6.4350 C   0  0  0  0  0  0  0  0  0  0  0  0
    4.7420   26.9040    5.4220 C   0  0  0  0  0  0  0  0  0  0  0  0
   -2.2780   32.2800    8.1550 H   0  0  0  0  0  0  0  0  0  0  0  0
    0.9750   26.0990    9.1810 H   0  0  0  0  0  0  0  0  0  0  0  0
   -0.2440   25.5160    7.9280 H   0  0  0  0  0  0  0  0  0  0  0  0
   -1.9770   25.5340    9.9350 H   0  0  0  0  0  0  0  0  0  0  0  0
   -1.1330   23.4560    8.8860 H   0  0  0  0  0  0  0  0  0  0  0  0
    0.4110   23.5520    9.8300 H   0  0  0  0  0  0  0  0  0  0  0  0
   -2.4320   23.1150   10.9560 H   0  0  0  0  0  0  0  0  0  0  0  0
   -1.0880   21.9030   10.8760 H   0  0  0  0  0  0  0  0  0  0  0  0
   -1.3430   22.9020   13.1710 H   0  0  0  0  0  0  0  0  0  0  0  0
    0.2730   23.2600   12.4340 H   0  0  0  0  0  0  0  0  0  0  0  0
   -2.1580   25.1700   12.5840 H   0  0  0  0  0  0  0  0  0  0  0  0
   -0.6170   25.2940   13.5200 H   0  0  0  0  0  0  0  0  0  0  0  0
    0.6940   25.6670   11.4950 H   0  0  0  0  0  0  0  0  0  0  0  0
   -0.6690   26.8570   11.5420 H   0  0  0  0  0  0  0  0  0  0  0  0
    6.1890   25.5020    4.7110 H   0  0  0  0  0  0  0  0  0  0  0  0
    4.3140   24.6270    8.5360 H   0  0  0  0  0  0  0  0  0  0  0  0
    3.0370   26.6920    8.3950 H   0  0  0  0  0  0  0  0  0  0  0  0
   -0.0980   32.5830    6.7540 H   0  0  0  0  0  0  0  0  0  0  0  0
    3.5680   29.1380    5.5790 H   0  0  0  0  0  0  0  0  0  0  0  0
    4.8720   27.5490    4.5520 H   0  0  0  0  0  0  0  0  0  0  0  0
    6.2500   23.4160    6.7120 S   0  0  0  0  0  0  0  0  0  0  0  0
    6.5880   22.9430    5.3500 O   0  0  0  0  0  0  0  0  0  0  0  0
    7.4520   23.6840    7.5320 O   0  0  0  0  0  0  0  0  0  0  0  0
    5.2310   22.2410    7.4790 C   0  0  0  0  0  0  0  0  0  0  0  0
    5.6690   21.2110    7.4490 H   0  0  0  0  0  0  0  0  0  0  0  0
    5.0230   22.4740    8.5600 H   0  0  0  0  0  0  0  0  0  0  0  0
    4.2230   22.1640    6.9880 H   0  0  0  0  0  0  0  0  0  0  0  0
  1 14  2  0  0  0  0
  1 21  1  0  0  0  0
  1 22  1  0  0  0  0
  2 18  2  0  0  0  0
  2 19  1  0  0  0  0
  2 25  1  0  0  0  0
  3  4  1  0  0  0  0
  3 16  1  0  0  0  0
  3 26  1  0  0  0  0
  3 27  1  0  0  0  0
  4  5  1  0  0  0  0
  4  9  1  0  0  0  0
  4 28  1  0  0  0  0
  5  6  1  0  0  0  0
  5 29  1  0  0  0  0
  5 30  1  0  0  0  0
  6  7  1  0  0  0  0
  6 31  1  0  0  0  0
  6 32  1  0  0  0  0
  7  8  1  0  0  0  0
  7 33  1  0  0  0  0
  7 34  1  0  0  0  0
  8  9  1  0  0  0  0
  8 35  1  0  0  0  0
  8 36  1  0  0  0  0
  9 37  1  0  0  0  0
  9 38  1  0  0  0  0
 10 11  2  0  0  0  0
 10 24  1  0  0  0  0
 10 39  1  0  0  0  0
 11 12  1  0  0  0  0
 11 45  1  0  0  0  0
 12 13  2  0  0  0  0
 12 40  1  0  0  0  0
 13 23  1  0  0  0  0
 13 41  1  0  0  0  0
 14 15  1  0  0  0  0
 15 16  1  0  0  0  0
 15 17  2  0  0  0  0
 17 18  1  0  0  0  0
 17 20  1  0  0  0  0
 19 20  1  0  0  0  0
 19 42  1  0  0  0  0
 20 21  2  0  0  0  0
 22 23  1  0  0  0  0
 22 43  1  0  0  0  0
 23 24  2  0  0  0  0
 24 44  1  0  0  0  0
 45 46  2  0  0  0  0
 45 47  2  0  0  0  0
 45 48  1  0  0  0  0
 48 49  1  0  0  0  0
 48 50  1  0  0  0  0
 48 51  1  0  0  0  0
M  END
$$$$
