18634-1
 OpenBabel02232411163D
Structure written by MMmdl.
 46 47  0  0  0  0  0  0  0  0999 V2000
   23.2380   10.7730   29.0740 C   0  0  0  0  0  0  0  0  0  0  0  0
   23.4890   11.0060   30.5490 C   0  0  0  0  0  0  0  0  0  0  0  0
   22.2150   11.1130   31.2880 O   0  0  0  0  0  0  0  0  0  0  0  0
   21.5470    9.9840   31.6190 C   0  0  0  0  0  0  0  0  0  0  0  0
   22.0080    8.7880   31.1920 N   0  0  0  0  0  0  0  0  0  0  0  0
   21.2630    7.6600   31.5040 C   0  0  0  0  0  0  0  0  0  0  0  0
   20.1020    7.7170   32.2700 C   0  0  0  0  0  0  0  0  0  0  0  0
   19.6340    8.9760   32.7290 C   0  0  0  0  0  0  0  0  0  0  0  0
   18.4810    9.0400   33.4710 N   0  0  0  0  0  0  0  0  0  0  0  0
   20.3610   10.1640   32.3920 C   0  0  0  0  0  0  0  0  0  0  0  0
   19.9620   11.4690   32.7480 C   0  0  0  0  0  0  0  0  0  0  0  0
   19.6810   12.5660   33.0010 N   0  0  0  0  0  0  0  0  0  0  0  0
   21.8290    6.5000   30.9370 N   0  0  0  0  0  0  0  0  0  0  0  0
   21.2600    5.2060   30.8960 C   0  0  0  0  0  0  0  0  0  0  0  0
   20.1910    4.9470   31.4040 O   0  0  0  0  0  0  0  0  0  0  0  0
   22.0870    4.2110   30.0930 C   0  0  0  0  0  0  0  0  0  0  0  0
   23.4390    3.9520   30.6930 C   0  0  0  0  0  0  0  0  0  0  0  0
   24.5400    4.8090   30.3980 C   0  0  0  0  0  0  0  0  0  0  0  0
   24.2090    5.8410   29.5260 O   0  0  0  0  0  0  0  0  0  0  0  0
   25.1690    6.9220   29.3780 C   0  0  0  0  0  0  0  0  0  0  0  0
   25.8050    4.5850   30.9310 C   0  0  0  0  0  0  0  0  0  0  0  0
   26.0120    3.4980   31.7930 C   0  0  0  0  0  0  0  0  0  0  0  0
   24.9400    2.6560   32.0880 C   0  0  0  0  0  0  0  0  0  0  0  0
   23.6550    2.8660   31.5300 C   0  0  0  0  0  0  0  0  0  0  0  0
   24.9750    1.5570   32.9200 O   0  0  0  0  0  0  0  0  0  0  0  0
   26.2450    1.2250   33.5380 C   0  0  0  0  0  0  0  0  0  0  0  0
   22.7960    9.7650   28.8940 H   0  0  0  0  0  0  0  0  0  0  0  0
   22.5570   11.5440   28.6510 H   0  0  0  0  0  0  0  0  0  0  0  0
   24.2110   10.8290   28.5250 H   0  0  0  0  0  0  0  0  0  0  0  0
   23.8990   12.0250   30.7500 H   0  0  0  0  0  0  0  0  0  0  0  0
   24.1170   10.2040   31.0010 H   0  0  0  0  0  0  0  0  0  0  0  0
   19.5360    6.8140   32.5070 H   0  0  0  0  0  0  0  0  0  0  0  0
   18.0970    9.9320   33.7810 H   0  0  0  0  0  0  0  0  0  0  0  0
   17.9790    8.1770   33.7540 H   0  0  0  0  0  0  0  0  0  0  0  0
   22.7480    6.6510   30.4460 H   0  0  0  0  0  0  0  0  0  0  0  0
   21.5170    3.2490   30.0190 H   0  0  0  0  0  0  0  0  0  0  0  0
   22.2220    4.6270   29.0570 H   0  0  0  0  0  0  0  0  0  0  0  0
   26.0600    6.5530   28.8270 H   0  0  0  0  0  0  0  0  0  0  0  0
   24.5890    7.6560   28.7740 H   0  0  0  0  0  0  0  0  0  0  0  0
   25.4380    7.3430   30.3710 H   0  0  0  0  0  0  0  0  0  0  0  0
   26.6530    5.2310   30.6920 H   0  0  0  0  0  0  0  0  0  0  0  0
   27.0110    3.3420   32.2040 H   0  0  0  0  0  0  0  0  0  0  0  0
   22.8550    2.1600   31.7680 H   0  0  0  0  0  0  0  0  0  0  0  0
   27.0040    0.9910   32.7590 H   0  0  0  0  0  0  0  0  0  0  0  0
   26.5780    2.0520   34.2020 H   0  0  0  0  0  0  0  0  0  0  0  0
   25.9820    0.3150   34.1280 H   0  0  0  0  0  0  0  0  0  0  0  0
  1  2  1  0  0  0  0
  1 27  1  0  0  0  0
  1 28  1  0  0  0  0
  1 29  1  0  0  0  0
  2  3  1  0  0  0  0
  2 30  1  0  0  0  0
  2 31  1  0  0  0  0
  3  4  1  0  0  0  0
  4 10  2  0  0  0  0
  4  5  1  0  0  0  0
  5  6  2  0  0  0  0
  6  7  1  0  0  0  0
  6 13  1  0  0  0  0
  7  8  2  0  0  0  0
  7 32  1  0  0  0  0
  8  9  1  0  0  0  0
  8 10  1  0  0  0  0
  9 33  1  0  0  0  0
  9 34  1  0  0  0  0
 10 11  1  0  0  0  0
 11 12  3  0  0  0  0
 13 14  1  0  0  0  0
 13 35  1  0  0  0  0
 14 15  2  0  0  0  0
 14 16  1  0  0  0  0
 16 17  1  0  0  0  0
 16 36  1  0  0  0  0
 16 37  1  0  0  0  0
 17 24  2  0  0  0  0
 17 18  1  0  0  0  0
 18 19  1  0  0  0  0
 18 21  2  0  0  0  0
 19 20  1  0  0  0  0
 20 38  1  0  0  0  0
 20 39  1  0  0  0  0
 20 40  1  0  0  0  0
 21 22  1  0  0  0  0
 21 41  1  0  0  0  0
 22 23  2  0  0  0  0
 22 42  1  0  0  0  0
 23 24  1  0  0  0  0
 23 25  1  0  0  0  0
 24 43  1  0  0  0  0
 25 26  1  0  0  0  0
 26 44  1  0  0  0  0
 26 45  1  0  0  0  0
 26 46  1  0  0  0  0
M  END
$$$$
