jmc_28
                    3D
 Schrodinger Suite 2022-3.
 39 41  0  0  1  0  0  0  0  0999 V2000
   -3.1110   22.6050  -29.6510 C   0  0  0  0  0  0  0  0  0  0  0  0
   -3.5780   21.5200  -28.8910 C   0  0  0  0  0  0  0  0  0  0  0  0
   -2.7720   20.8880  -27.9440 C   0  0  0  0  0  0  0  0  0  0  0  0
   -5.1440   25.2330  -31.5300 C   0  0  0  0  0  0  0  0  0  0  0  0
   -3.9820   23.1280  -30.7570 C   0  0  0  0  0  0  0  0  0  0  0  0
   -5.8250   24.6570  -32.6140 C   0  0  0  0  0  0  0  0  0  0  0  0
   -6.7060   25.4630  -33.3500 C   0  0  0  0  0  0  0  0  0  0  0  0
   -1.8200   23.0740  -29.3830 C   0  0  0  0  0  0  0  0  0  0  0  0
   -1.4740   21.3590  -27.7220 C   0  0  0  0  0  0  0  0  0  0  0  0
   -0.9980   22.4650  -28.4310 C   0  0  0  0  0  0  0  0  0  0  0  0
   -5.1810   20.9630  -29.1350 Cl  0  0  0  0  0  0  0  0  0  0  0  0
   -4.4090   22.4010  -31.6290 O   0  0  0  0  0  0  0  0  0  0  0  0
   -4.2750   24.5030  -30.6690 N   0  0  0  0  0  0  0  0  0  0  0  0
   -6.9260   26.7730  -33.0790 N   0  0  0  0  0  0  0  0  0  0  0  0
   -6.2390   27.3290  -32.0160 C   0  0  0  0  0  0  0  0  0  0  0  0
   -5.3350   26.5980  -31.2320 C   0  0  0  0  0  0  0  0  0  0  0  0
   -6.5520   28.6950  -31.7750 N   0  0  0  0  0  0  0  0  0  0  0  0
   -5.8400   29.5810  -30.9220 C   0  0  0  0  0  0  0  0  0  0  0  0
   -4.8870   29.1870  -30.2720 O   0  0  0  0  0  0  0  0  0  0  0  0
   -6.3800   30.9710  -30.9050 C   0  0  1  0  0  0  0  0  0  0  0  0
   -6.0700   31.8850  -29.7200 C   0  0  0  0  0  0  0  0  0  0  0  0
   -5.4380   32.1810  -31.0620 C   0  0  1  0  0  0  0  0  0  0  0  0
   -1.1990   24.4380  -30.2170 Cl  0  0  0  0  0  0  0  0  0  0  0  0
   -3.1320   20.0290  -27.3730 H   0  0  0  0  0  0  0  0  0  0  0  0
   -5.7030   23.6050  -32.8840 H   0  0  0  0  0  0  0  0  0  0  0  0
   -7.2720   25.0420  -34.1980 H   0  0  0  0  0  0  0  0  0  0  0  0
   -0.8300   20.8660  -26.9860 H   0  0  0  0  0  0  0  0  0  0  0  0
    0.0080   22.8430  -28.2280 H   0  0  0  0  0  0  0  0  0  0  0  0
   -3.8500   25.0380  -29.8900 H   0  0  0  0  0  0  0  0  0  0  0  0
   -4.7930   27.0770  -30.4090 H   0  0  0  0  0  0  0  0  0  0  0  0
   -7.4490   29.0350  -32.1910 H   0  0  0  0  0  0  0  0  0  0  0  0
   -7.3760   31.0880  -31.3640 H   0  0  0  0  0  0  0  0  0  0  0  0
   -5.4450   31.5120  -28.9000 H   0  0  0  0  0  0  0  0  0  0  0  0
   -6.8790   32.5410  -29.3680 H   0  0  0  0  0  0  0  0  0  0  0  0
   -5.8650   33.0240  -31.6330 H   0  0  0  0  0  0  0  0  0  0  0  0
   -3.9600   32.0100  -31.2880 C   0  0  0  0  0  0  0  0  0  0  0  0
   -3.7660   31.8200  -32.3650 H   0  0  0  0  0  0  0  0  0  0  0  0
   -3.5500   31.1560  -30.6950 H   0  0  0  0  0  0  0  0  0  0  0  0
   -3.4320   32.9400  -30.9640 H   0  0  0  0  0  0  0  0  0  0  0  0
  1  2  2  0  0  0  0
  1  5  1  0  0  0  0
  1  8  1  0  0  0  0
  2  3  1  0  0  0  0
  2 11  1  0  0  0  0
  3  9  2  0  0  0  0
  3 24  1  0  0  0  0
  4  6  1  0  0  0  0
  4 13  1  0  0  0  0
  4 16  2  0  0  0  0
  5 12  2  0  0  0  0
  5 13  1  0  0  0  0
  6  7  2  0  0  0  0
  6 25  1  0  0  0  0
  7 14  1  0  0  0  0
  7 26  1  0  0  0  0
  8 10  2  0  0  0  0
  8 23  1  0  0  0  0
  9 10  1  0  0  0  0
  9 27  1  0  0  0  0
 10 28  1  0  0  0  0
 13 29  1  0  0  0  0
 14 15  2  0  0  0  0
 15 16  1  0  0  0  0
 15 17  1  0  0  0  0
 16 30  1  0  0  0  0
 17 18  1  0  0  0  0
 17 31  1  0  0  0  0
 18 19  2  0  0  0  0
 18 20  1  0  0  0  0
 20 21  1  0  0  0  0
 20 22  1  0  0  0  0
 20 32  1  0  0  0  0
 21 22  1  0  0  0  0
 21 33  1  0  0  0  0
 21 34  1  0  0  0  0
 22 35  1  0  0  0  0
 22 36  1  0  0  0  0
 36 37  1  0  0  0  0
 36 38  1  0  0  0  0
 36 39  1  0  0  0  0
M  END
$$$$
