p38a_2aa
 OpenBabel02232411163D
Structure written by MMmdl.
 43 45  0  0  0  0  0  0  0  0999 V2000
   36.3460   36.0000   15.8710 C   0  0  0  0  0  0  0  0  0  0  0  0
   34.5570   35.0030   21.4370 C   0  0  0  0  0  0  0  0  0  0  0  0
   35.6610   35.5470   16.9940 C   0  0  0  0  0  0  0  0  0  0  0  0
   34.0550   39.0980   23.9530 C   0  0  0  0  0  0  0  0  0  0  0  0
   33.4760   38.9700   26.3770 C   0  0  0  0  0  0  0  0  0  0  0  0
   34.7570   37.8750   21.5890 C   0  0  0  0  0  0  0  0  0  0  0  0
   35.1730   37.2010   20.3870 C   0  0  0  0  0  0  0  0  0  0  0  0
   37.6430   36.4850   16.0840 C   0  0  0  0  0  0  0  0  0  0  0  0
   38.2660   36.4950   17.3350 C   0  0  0  0  0  0  0  0  0  0  0  0
   37.5440   36.0660   18.4550 C   0  0  0  0  0  0  0  0  0  0  0  0
   34.3620   37.1140   22.7290 C   0  0  0  0  0  0  0  0  0  0  0  0
   34.7380   39.2890   21.7220 C   0  0  0  0  0  0  0  0  0  0  0  0
   35.1090   35.8510   20.3430 C   0  0  0  0  0  0  0  0  0  0  0  0
   36.2410   35.5930   18.2780 C   0  0  0  0  0  0  0  0  0  0  0  0
   33.8910   34.9520   23.8750 C   0  0  0  0  0  0  0  0  0  0  0  0
   34.4390   35.0420   16.8810 F   0  0  0  0  0  0  0  0  0  0  0  0
   35.4830   35.0080   19.3000 O   0  0  0  0  0  0  0  0  0  0  0  0
   34.4060   39.9140   22.8650 N   0  0  0  0  0  0  0  0  0  0  0  0
   34.3340   33.8160   21.3610 O   0  0  0  0  0  0  0  0  0  0  0  0
   34.2860   35.7140   22.6580 N   0  0  0  0  0  0  0  0  0  0  0  0
   34.0380   37.7210   23.9170 N   0  0  0  0  0  0  0  0  0  0  0  0
   33.6060   39.7300   25.1040 N   0  0  0  0  0  0  0  0  0  0  0  0
   35.8900   36.0010   14.8780 H   0  0  0  0  0  0  0  0  0  0  0  0
   34.8340   38.7990   27.1060 C   0  0  0  0  0  0  0  0  0  0  0  0
   35.5410   37.8090   19.5560 H   0  0  0  0  0  0  0  0  0  0  0  0
   39.2910   36.8620   17.4460 H   0  0  0  0  0  0  0  0  0  0  0  0
   37.9940   36.1260   19.4480 H   0  0  0  0  0  0  0  0  0  0  0  0
   35.0020   39.9220   20.8590 H   0  0  0  0  0  0  0  0  0  0  0  0
   34.6000   35.1840   24.7170 H   0  0  0  0  0  0  0  0  0  0  0  0
   32.8560   35.2460   24.1980 H   0  0  0  0  0  0  0  0  0  0  0  0
   33.9150   33.8500   23.6710 H   0  0  0  0  0  0  0  0  0  0  0  0
   33.8070   40.7400   25.2220 H   0  0  0  0  0  0  0  0  0  0  0  0
   38.2970   36.9960   15.0430 F   0  0  0  0  0  0  0  0  0  0  0  0
   32.4270   39.6860   27.2620 C   0  0  0  0  0  0  0  0  0  0  0  0
   32.9310   40.9220   27.8040 O   0  0  0  0  0  0  0  0  0  0  0  0
   32.9980   41.5940   27.0490 H   0  0  0  0  0  0  0  0  0  0  0  0
   31.4980   39.8930   26.6830 H   0  0  0  0  0  0  0  0  0  0  0  0
   32.2140   39.0780   28.1740 H   0  0  0  0  0  0  0  0  0  0  0  0
   35.4580   40.0530   27.3960 O   0  0  0  0  0  0  0  0  0  0  0  0
   34.6710   38.2420   28.0610 H   0  0  0  0  0  0  0  0  0  0  0  0
   35.5740   38.2760   26.4580 H   0  0  0  0  0  0  0  0  0  0  0  0
   34.7670   40.6460   27.8160 H   0  0  0  0  0  0  0  0  0  0  0  0
   33.0700   37.9340   26.1560 H   0  0  0  0  0  0  0  0  0  0  0  0
  1  3  2  0  0  0  0
  1  8  1  0  0  0  0
  1 23  1  0  0  0  0
  2 13  1  0  0  0  0
  2 19  2  0  0  0  0
  2 20  1  0  0  0  0
  3 14  1  0  0  0  0
  3 16  1  0  0  0  0
  4 18  2  0  0  0  0
  4 21  1  0  0  0  0
  4 22  1  0  0  0  0
  5 22  1  0  0  0  0
  5 24  1  0  0  0  0
  5 34  1  0  0  0  0
  5 43  1  0  0  0  0
  6  7  1  0  0  0  0
  6 11  1  0  0  0  0
  6 12  2  0  0  0  0
  7 13  2  0  0  0  0
  7 25  1  0  0  0  0
  8  9  2  0  0  0  0
  8 33  1  0  0  0  0
  9 10  1  0  0  0  0
  9 26  1  0  0  0  0
 10 14  2  0  0  0  0
 10 27  1  0  0  0  0
 11 20  1  0  0  0  0
 11 21  2  0  0  0  0
 12 18  1  0  0  0  0
 12 28  1  0  0  0  0
 13 17  1  0  0  0  0
 14 17  1  0  0  0  0
 15 20  1  0  0  0  0
 15 29  1  0  0  0  0
 15 30  1  0  0  0  0
 15 31  1  0  0  0  0
 22 32  1  0  0  0  0
 24 39  1  0  0  0  0
 24 40  1  0  0  0  0
 24 41  1  0  0  0  0
 34 35  1  0  0  0  0
 34 37  1  0  0  0  0
 34 38  1  0  0  0  0
 35 36  1  0  0  0  0
 39 42  1  0  0  0  0
M  END
$$$$
