p38a_3flz
 OpenBabel02232411163D
Structure written by MMmdl.
 46 49  0  0  0  0  0  0  0  0999 V2000
   35.2420   35.1410   18.9310 O   0  0  0  0  0  0  0  0  0  0  0  0
   35.0500   37.2380   20.1870 C   0  0  0  0  0  0  0  0  0  0  0  0
   34.1500   37.0470   22.4910 C   0  0  0  0  0  0  0  0  0  0  0  0
   34.6430   37.8520   21.4210 C   0  0  0  0  0  0  0  0  0  0  0  0
   34.7020   39.2540   21.6470 C   0  0  0  0  0  0  0  0  0  0  0  0
   33.9040   38.9680   23.8350 C   0  0  0  0  0  0  0  0  0  0  0  0
   34.9510   35.8930   20.0620 C   0  0  0  0  0  0  0  0  0  0  0  0
   36.2040   35.6760   18.0510 C   0  0  0  0  0  0  0  0  0  0  0  0
   33.5070   34.8490   23.4700 C   0  0  0  0  0  0  0  0  0  0  0  0
   34.2020   37.9930   26.9160 C   0  0  0  0  0  0  0  0  0  0  0  0
   35.8020   35.7600   16.7150 C   0  0  0  0  0  0  0  0  0  0  0  0
   38.0630   36.4470   16.1640 C   0  0  0  0  0  0  0  0  0  0  0  0
   36.7530   36.1560   15.7700 C   0  0  0  0  0  0  0  0  0  0  0  0
   38.4400   36.3440   17.5080 C   0  0  0  0  0  0  0  0  0  0  0  0
   34.2770   33.7920   21.0140 O   0  0  0  0  0  0  0  0  0  0  0  0
   34.4120   34.9920   21.1150 C   0  0  0  0  0  0  0  0  0  0  0  0
   37.5070   35.9620   18.4760 C   0  0  0  0  0  0  0  0  0  0  0  0
   34.3530   39.8260   22.8090 N   0  0  0  0  0  0  0  0  0  0  0  0
   34.0320   35.6570   22.3340 N   0  0  0  0  0  0  0  0  0  0  0  0
   33.7830   37.5970   23.6940 N   0  0  0  0  0  0  0  0  0  0  0  0
   33.5480   39.5370   25.0330 N   0  0  0  0  0  0  0  0  0  0  0  0
   33.0520   38.7220   26.1900 C   0  0  0  0  0  0  0  0  0  0  0  0
   32.2680   39.6370   27.1530 C   0  0  0  0  0  0  0  0  0  0  0  0
   33.1670   40.4360   28.1060 C   0  0  0  0  0  0  0  0  0  0  0  0
   34.1580   39.6130   28.7550 O   0  0  0  0  0  0  0  0  0  0  0  0
   35.0150   38.9280   27.8110 C   0  0  0  0  0  0  0  0  0  0  0  0
   35.4330   37.8810   19.3900 H   0  0  0  0  0  0  0  0  0  0  0  0
   35.0440   39.9230   20.8400 H   0  0  0  0  0  0  0  0  0  0  0  0
   33.5050   33.7600   23.2070 H   0  0  0  0  0  0  0  0  0  0  0  0
   34.1460   35.0050   24.3820 H   0  0  0  0  0  0  0  0  0  0  0  0
   32.4590   35.1710   23.7160 H   0  0  0  0  0  0  0  0  0  0  0  0
   33.7450   37.1780   27.5350 H   0  0  0  0  0  0  0  0  0  0  0  0
   34.8790   37.5030   26.1740 H   0  0  0  0  0  0  0  0  0  0  0  0
   34.7720   35.5610   16.4130 H   0  0  0  0  0  0  0  0  0  0  0  0
   38.7850   36.7890   15.4270 H   0  0  0  0  0  0  0  0  0  0  0  0
   36.4600   36.2600   14.7250 H   0  0  0  0  0  0  0  0  0  0  0  0
   39.4640   36.5870   17.7980 H   0  0  0  0  0  0  0  0  0  0  0  0
   37.7870   35.9210   19.5270 H   0  0  0  0  0  0  0  0  0  0  0  0
   33.6560   40.5580   25.1720 H   0  0  0  0  0  0  0  0  0  0  0  0
   32.3400   37.9460   25.7790 H   0  0  0  0  0  0  0  0  0  0  0  0
   31.6460   40.3540   26.5630 H   0  0  0  0  0  0  0  0  0  0  0  0
   31.5770   38.9880   27.7460 H   0  0  0  0  0  0  0  0  0  0  0  0
   33.6910   41.2540   27.5630 H   0  0  0  0  0  0  0  0  0  0  0  0
   32.5820   40.8330   28.9670 H   0  0  0  0  0  0  0  0  0  0  0  0
   35.6970   38.3600   28.4840 H   0  0  0  0  0  0  0  0  0  0  0  0
   35.5650   39.6860   27.2070 H   0  0  0  0  0  0  0  0  0  0  0  0
  1  7  1  0  0  0  0
  1  8  1  0  0  0  0
  2  4  1  0  0  0  0
  2  7  2  0  0  0  0
  2 27  1  0  0  0  0
  3  4  2  0  0  0  0
  3 19  1  0  0  0  0
  3 20  1  0  0  0  0
  4  5  1  0  0  0  0
  5 18  2  0  0  0  0
  5 28  1  0  0  0  0
  6 18  1  0  0  0  0
  6 20  2  0  0  0  0
  6 21  1  0  0  0  0
  7 16  1  0  0  0  0
  8 11  2  0  0  0  0
  8 17  1  0  0  0  0
  9 19  1  0  0  0  0
  9 29  1  0  0  0  0
  9 30  1  0  0  0  0
  9 31  1  0  0  0  0
 10 22  1  0  0  0  0
 10 26  1  0  0  0  0
 10 32  1  0  0  0  0
 10 33  1  0  0  0  0
 11 13  1  0  0  0  0
 11 34  1  0  0  0  0
 12 13  2  0  0  0  0
 12 14  1  0  0  0  0
 12 35  1  0  0  0  0
 13 36  1  0  0  0  0
 14 17  2  0  0  0  0
 14 37  1  0  0  0  0
 15 16  2  0  0  0  0
 16 19  1  0  0  0  0
 17 38  1  0  0  0  0
 21 22  1  0  0  0  0
 21 39  1  0  0  0  0
 22 23  1  0  0  0  0
 22 40  1  0  0  0  0
 23 24  1  0  0  0  0
 23 41  1  0  0  0  0
 23 42  1  0  0  0  0
 24 25  1  0  0  0  0
 24 43  1  0  0  0  0
 24 44  1  0  0  0  0
 25 26  1  0  0  0  0
 26 45  1  0  0  0  0
 26 46  1  0  0  0  0
M  END
$$$$
