67
                    3D
 Schrodinger Suite 2022-3.
 43 45  0  0  1  0  0  0  0  0999 V2000
    3.4780  -48.4960    7.2070 O   0  0  0  0  0  0  0  0  0  0  0  0
    3.0350  -49.4590    6.5730 C   0  0  0  0  0  0  0  0  0  0  0  0
    3.6580  -50.4000    6.0600 O   0  5  0  0  0  0  0  0  0  0  0  0
    1.4940  -49.5500    6.4110 C   0  0  0  0  0  0  0  0  0  0  0  0
   -0.3600  -50.8070    6.5450 C   0  0  0  0  0  0  0  0  0  0  0  0
   -1.2500  -51.8510    6.7710 C   0  0  0  0  0  0  0  0  0  0  0  0
   -2.5930  -51.5840    6.4880 C   0  0  0  0  0  0  0  0  0  0  0  0
   -3.0040  -50.3300    6.0000 C   0  0  0  0  0  0  0  0  0  0  0  0
   -2.0960  -49.2910    5.7800 C   0  0  0  0  0  0  0  0  0  0  0  0
   -0.7460  -49.5190    6.0570 C   0  0  0  0  0  0  0  0  0  0  0  0
    0.4770  -48.7310    5.9930 C   0  0  0  0  0  0  0  0  0  0  0  0
    0.5330  -47.3100    5.5630 C   0  0  0  0  0  0  0  0  0  0  0  0
    0.5020  -46.3330    6.7530 C   0  0  0  0  0  0  0  0  0  0  0  0
   -0.8360  -46.3300    7.4890 C   0  0  0  0  0  0  0  0  0  0  0  0
   -1.7480  -45.6970    6.5160 O   0  0  0  0  0  0  0  0  0  0  0  0
   -3.0270  -45.4380    6.8910 C   0  0  0  0  0  0  0  0  0  0  0  0
   -3.6050  -45.8080    8.1160 C   0  0  0  0  0  0  0  0  0  0  0  0
   -4.9390  -45.4630    8.3700 C   0  0  0  0  0  0  0  0  0  0  0  0
   -5.5860  -45.8030    9.6710 C   0  0  0  0  0  0  0  0  0  0  0  0
   -5.6630  -44.7890    7.3760 C   0  0  0  0  0  0  0  0  0  0  0  0
   -7.3320  -44.4510    7.6530 Cl  0  0  0  0  0  0  0  0  0  0  0  0
   -5.0940  -44.4150    6.1430 C   0  0  0  0  0  0  0  0  0  0  0  0
   -5.9170  -43.7470    5.0930 C   0  0  0  0  0  0  0  0  0  0  0  0
   -3.7590  -44.7360    5.9090 C   0  0  0  0  0  0  0  0  0  0  0  0
   -0.9470  -52.8260    7.1510 H   0  0  0  0  0  0  0  0  0  0  0  0
   -3.3430  -52.3600    6.6500 H   0  0  0  0  0  0  0  0  0  0  0  0
   -4.0630  -50.1670    5.7920 H   0  0  0  0  0  0  0  0  0  0  0  0
   -2.4470  -48.3300    5.4050 H   0  0  0  0  0  0  0  0  0  0  0  0
   -0.3560  -47.0920    4.9130 H   0  0  0  0  0  0  0  0  0  0  0  0
    1.4600  -47.1120    4.9720 H   0  0  0  0  0  0  0  0  0  0  0  0
    0.6840  -45.2980    6.3760 H   0  0  0  0  0  0  0  0  0  0  0  0
    1.2990  -46.6150    7.4820 H   0  0  0  0  0  0  0  0  0  0  0  0
   -0.8200  -45.6820    8.3900 H   0  0  0  0  0  0  0  0  0  0  0  0
   -1.2330  -47.3490    7.6830 H   0  0  0  0  0  0  0  0  0  0  0  0
   -3.0550  -46.3730    8.8630 H   0  0  0  0  0  0  0  0  0  0  0  0
   -5.9610  -44.8760   10.1700 H   0  0  0  0  0  0  0  0  0  0  0  0
   -6.4650  -46.4710    9.5000 H   0  0  0  0  0  0  0  0  0  0  0  0
   -4.8820  -46.3270   10.3560 H   0  0  0  0  0  0  0  0  0  0  0  0
   -5.2760  -43.3890    4.2540 H   0  0  0  0  0  0  0  0  0  0  0  0
   -6.6610  -44.4820    4.6940 H   0  0  0  0  0  0  0  0  0  0  0  0
   -6.4780  -42.8780    5.5090 H   0  0  0  0  0  0  0  0  0  0  0  0
   -3.2820  -44.4690    4.9710 H   0  0  0  0  0  0  0  0  0  0  0  0
    1.0220  -50.8350    6.7540 O   0  0  0  0  0  0  0  0  0  0  0  0
  1  2  2  0  0  0  0
  2  3  1  0  0  0  0
  2  4  1  0  0  0  0
  4 11  2  0  0  0  0
  4 43  1  0  0  0  0
  5  6  1  0  0  0  0
  5 10  2  0  0  0  0
  5 43  1  0  0  0  0
  6  7  2  0  0  0  0
  6 25  1  0  0  0  0
  7  8  1  0  0  0  0
  7 26  1  0  0  0  0
  8  9  2  0  0  0  0
  8 27  1  0  0  0  0
  9 10  1  0  0  0  0
  9 28  1  0  0  0  0
 10 11  1  0  0  0  0
 11 12  1  0  0  0  0
 12 29  1  0  0  0  0
 12 30  1  0  0  0  0
 12 13  1  0  0  0  0
 13 14  1  0  0  0  0
 13 31  1  0  0  0  0
 13 32  1  0  0  0  0
 14 15  1  0  0  0  0
 14 33  1  0  0  0  0
 14 34  1  0  0  0  0
 15 16  1  0  0  0  0
 16 17  1  0  0  0  0
 16 24  2  0  0  0  0
 17 18  2  0  0  0  0
 17 35  1  0  0  0  0
 18 19  1  0  0  0  0
 18 20  1  0  0  0  0
 19 36  1  0  0  0  0
 19 37  1  0  0  0  0
 19 38  1  0  0  0  0
 20 21  1  0  0  0  0
 20 22  2  0  0  0  0
 22 23  1  0  0  0  0
 22 24  1  0  0  0  0
 23 39  1  0  0  0  0
 23 40  1  0  0  0  0
 23 41  1  0  0  0  0
 24 42  1  0  0  0  0
M  CHG  1   3  -1
M  END
$$$$
