18637-1
 OpenBabel02232411163D
Structure written by MMmdl.
 53 54  0  0  0  0  0  0  0  0999 V2000
   24.4790   10.7470   30.7580 C   0  0  0  0  0  0  0  0  0  0  0  0
   23.1680   11.1710   30.1290 C   0  0  0  0  0  0  0  0  0  0  0  0
   22.0880   11.2390   31.1340 O   0  0  0  0  0  0  0  0  0  0  0  0
   21.4840   10.0950   31.5320 C   0  0  0  0  0  0  0  0  0  0  0  0
   21.9460    8.9040   31.0900 N   0  0  0  0  0  0  0  0  0  0  0  0
   21.2400    7.7650   31.4500 C   0  0  0  0  0  0  0  0  0  0  0  0
   20.1050    7.8090   32.2550 C   0  0  0  0  0  0  0  0  0  0  0  0
   19.6320    9.0640   32.7220 C   0  0  0  0  0  0  0  0  0  0  0  0
   18.4970    9.1150   33.4910 N   0  0  0  0  0  0  0  0  0  0  0  0
   20.3360   10.2580   32.3640 C   0  0  0  0  0  0  0  0  0  0  0  0
   19.9380   11.5580   32.7410 C   0  0  0  0  0  0  0  0  0  0  0  0
   19.6590   12.6510   33.0120 N   0  0  0  0  0  0  0  0  0  0  0  0
   21.8070    6.6000   30.8910 N   0  0  0  0  0  0  0  0  0  0  0  0
   21.2100    5.3190   30.8220 C   0  0  0  0  0  0  0  0  0  0  0  0
   20.1420    5.0700   31.3410 O   0  0  0  0  0  0  0  0  0  0  0  0
   21.9990    4.3280   29.9780 C   0  0  0  0  0  0  0  0  0  0  0  0
   23.3340    3.9810   30.5660 C   0  0  0  0  0  0  0  0  0  0  0  0
   24.4660    4.7890   30.3140 C   0  0  0  0  0  0  0  0  0  0  0  0
   24.1900    5.8810   29.5030 O   0  0  0  0  0  0  0  0  0  0  0  0
   25.2390    6.8640   29.3020 C   0  0  0  0  0  0  0  0  0  0  0  0
   25.7240    4.4780   30.8340 C   0  0  0  0  0  0  0  0  0  0  0  0
   25.8870    3.3290   31.6270 C   0  0  0  0  0  0  0  0  0  0  0  0
   24.7570    2.4950   31.8720 C   0  0  0  0  0  0  0  0  0  0  0  0
   23.5030    2.8320   31.3470 C   0  0  0  0  0  0  0  0  0  0  0  0
   25.0040    1.3920   32.6670 O   0  0  0  0  0  0  0  0  0  0  0  0
   24.0730    0.2830   32.5230 C   0  0  0  0  0  0  0  0  0  0  0  0
   27.2010    3.0230   32.0860 N   0  0  0  0  0  0  0  0  0  0  0  0
   27.5570    2.4660   33.3460 C   0  0  0  0  0  0  0  0  0  0  0  0
   26.7110    2.1060   34.1400 O   0  0  0  0  0  0  0  0  0  0  0  0
   29.0400    2.3730   33.5470 C   0  0  0  0  0  0  0  0  0  0  0  0
   24.4160    9.7090   31.1640 H   0  0  0  0  0  0  0  0  0  0  0  0
   24.7750   11.4370   31.5740 H   0  0  0  0  0  0  0  0  0  0  0  0
   25.2810   10.7530   29.9780 H   0  0  0  0  0  0  0  0  0  0  0  0
   23.1830   12.2400   29.8040 H   0  0  0  0  0  0  0  0  0  0  0  0
   22.8600   10.4910   29.3020 H   0  0  0  0  0  0  0  0  0  0  0  0
   19.5610    6.8990   32.5140 H   0  0  0  0  0  0  0  0  0  0  0  0
   18.1000   10.0040   33.7950 H   0  0  0  0  0  0  0  0  0  0  0  0
   17.9890    8.2480   33.7530 H   0  0  0  0  0  0  0  0  0  0  0  0
   22.7230    6.7440   30.3950 H   0  0  0  0  0  0  0  0  0  0  0  0
   21.3880    3.3990   29.8500 H   0  0  0  0  0  0  0  0  0  0  0  0
   22.1590    4.7890   28.9630 H   0  0  0  0  0  0  0  0  0  0  0  0
   25.6060    7.2500   30.2770 H   0  0  0  0  0  0  0  0  0  0  0  0
   26.0560    6.4150   28.6980 H   0  0  0  0  0  0  0  0  0  0  0  0
   24.6970    7.6550   28.7350 H   0  0  0  0  0  0  0  0  0  0  0  0
   26.5880    5.1090   30.6100 H   0  0  0  0  0  0  0  0  0  0  0  0
   22.6400    2.1870   31.5300 H   0  0  0  0  0  0  0  0  0  0  0  0
   24.5850   -0.5270   33.0930 H   0  0  0  0  0  0  0  0  0  0  0  0
   23.0950    0.5370   32.9860 H   0  0  0  0  0  0  0  0  0  0  0  0
   23.9680    0.0030   31.4510 H   0  0  0  0  0  0  0  0  0  0  0  0
   27.9610    3.4380   31.5120 H   0  0  0  0  0  0  0  0  0  0  0  0
   29.2960    1.8930   34.5240 H   0  0  0  0  0  0  0  0  0  0  0  0
   29.5300    1.7690   32.7370 H   0  0  0  0  0  0  0  0  0  0  0  0
   29.5200    3.3870   33.5320 H   0  0  0  0  0  0  0  0  0  0  0  0
  1  2  1  0  0  0  0
  1 31  1  0  0  0  0
  1 32  1  0  0  0  0
  1 33  1  0  0  0  0
  2  3  1  0  0  0  0
  2 34  1  0  0  0  0
  2 35  1  0  0  0  0
  3  4  1  0  0  0  0
  4 10  2  0  0  0  0
  4  5  1  0  0  0  0
  5  6  2  0  0  0  0
  6  7  1  0  0  0  0
  6 13  1  0  0  0  0
  7  8  2  0  0  0  0
  7 36  1  0  0  0  0
  8  9  1  0  0  0  0
  8 10  1  0  0  0  0
  9 37  1  0  0  0  0
  9 38  1  0  0  0  0
 10 11  1  0  0  0  0
 11 12  3  0  0  0  0
 13 14  1  0  0  0  0
 13 39  1  0  0  0  0
 14 15  2  0  0  0  0
 14 16  1  0  0  0  0
 16 17  1  0  0  0  0
 16 40  1  0  0  0  0
 16 41  1  0  0  0  0
 17 24  2  0  0  0  0
 17 18  1  0  0  0  0
 18 19  1  0  0  0  0
 18 21  2  0  0  0  0
 19 20  1  0  0  0  0
 20 42  1  0  0  0  0
 20 43  1  0  0  0  0
 20 44  1  0  0  0  0
 21 22  1  0  0  0  0
 21 45  1  0  0  0  0
 22 23  2  0  0  0  0
 22 27  1  0  0  0  0
 23 24  1  0  0  0  0
 23 25  1  0  0  0  0
 24 46  1  0  0  0  0
 25 26  1  0  0  0  0
 26 47  1  0  0  0  0
 26 48  1  0  0  0  0
 26 49  1  0  0  0  0
 27 28  1  0  0  0  0
 27 50  1  0  0  0  0
 28 29  2  0  0  0  0
 28 30  1  0  0  0  0
 30 51  1  0  0  0  0
 30 52  1  0  0  0  0
 30 53  1  0  0  0  0
M  END
$$$$
