p38a_2s
 OpenBabel02232411163D
Structure written by MMmdl.
 54 57  0  0  1  0  0  0  0  0999 V2000
   38.2400   36.4850   17.2390 C   0  0  0  0  0  0  0  0  0  0  0  0
   34.6210   35.1380   21.4180 C   0  0  0  0  0  0  0  0  0  0  0  0
   37.4640   36.0630   18.3150 C   0  0  0  0  0  0  0  0  0  0  0  0
   34.1760   39.2350   23.9480 C   0  0  0  0  0  0  0  0  0  0  0  0
   34.7240   38.0050   21.5380 C   0  0  0  0  0  0  0  0  0  0  0  0
   35.0600   37.3410   20.3080 C   0  0  0  0  0  0  0  0  0  0  0  0
   37.5820   36.6200   16.0090 C   0  0  0  0  0  0  0  0  0  0  0  0
   36.2280   36.3270   15.8250 C   0  0  0  0  0  0  0  0  0  0  0  0
   35.4720   35.8970   16.9200 C   0  0  0  0  0  0  0  0  0  0  0  0
   34.4670   37.2460   22.7150 C   0  0  0  0  0  0  0  0  0  0  0  0
   34.6500   39.4210   21.6570 C   0  0  0  0  0  0  0  0  0  0  0  0
   35.0500   35.9880   20.2780 C   0  0  0  0  0  0  0  0  0  0  0  0
   36.0950   35.7560   18.1630 C   0  0  0  0  0  0  0  0  0  0  0  0
   38.0130   35.9450   19.5160 F   0  0  0  0  0  0  0  0  0  0  0  0
   35.3730   35.1590   19.2060 O   0  0  0  0  0  0  0  0  0  0  0  0
   34.3860   40.0450   22.8130 N   0  0  0  0  0  0  0  0  0  0  0  0
   34.4080   33.9440   21.3610 O   0  0  0  0  0  0  0  0  0  0  0  0
   34.4400   35.8380   22.6640 N   0  0  0  0  0  0  0  0  0  0  0  0
   34.2150   37.8530   23.9200 N   0  0  0  0  0  0  0  0  0  0  0  0
   33.8280   39.8610   25.1190 N   0  0  0  0  0  0  0  0  0  0  0  0
   39.2990   36.7360   17.3560 H   0  0  0  0  0  0  0  0  0  0  0  0
   35.3210   37.9530   19.4420 H   0  0  0  0  0  0  0  0  0  0  0  0
   35.7500   36.4450   14.8490 H   0  0  0  0  0  0  0  0  0  0  0  0
   34.4030   35.6880   16.7990 H   0  0  0  0  0  0  0  0  0  0  0  0
   34.8070   40.0520   20.7660 H   0  0  0  0  0  0  0  0  0  0  0  0
   33.8870   40.9000   25.1710 H   0  0  0  0  0  0  0  0  0  0  0  0
   38.2750   37.0890   14.9740 F   0  0  0  0  0  0  0  0  0  0  0  0
   32.7880   39.2820   28.7470 C   0  0  0  0  0  0  0  0  0  0  0  0
   32.7730   39.8910   27.3400 C   0  0  0  0  0  0  0  0  0  0  0  0
   33.7970   39.1660   26.4430 C   0  0  0  0  0  0  0  0  0  0  0  0
   35.1920   39.1770   27.1030 C   0  0  0  0  0  0  0  0  0  0  0  0
   35.0930   38.5920   28.5180 C   0  0  0  0  0  0  0  0  0  0  0  0
   34.1160   39.2940   29.3190 O   0  0  0  0  0  0  0  0  0  0  0  0
   32.4080   38.2340   28.7350 H   0  0  0  0  0  0  0  0  0  0  0  0
   32.2170   39.9170   29.4640 H   0  0  0  0  0  0  0  0  0  0  0  0
   33.0290   40.9770   27.4060 H   0  0  0  0  0  0  0  0  0  0  0  0
   31.7510   39.8000   26.9000 H   0  0  0  0  0  0  0  0  0  0  0  0
   33.4730   38.1000   26.2920 H   0  0  0  0  0  0  0  0  0  0  0  0
   35.9010   38.5620   26.4990 H   0  0  0  0  0  0  0  0  0  0  0  0
   35.5810   40.2220   27.1500 H   0  0  0  0  0  0  0  0  0  0  0  0
   34.8220   37.5110   28.4830 H   0  0  0  0  0  0  0  0  0  0  0  0
   36.0340   38.7600   29.0900 H   0  0  0  0  0  0  0  0  0  0  0  0
   34.2190   35.0510   23.9190 C   0  0  0  0  0  0  0  0  0  0  0  0
   34.8850   34.1420   23.8840 H   0  0  0  0  0  0  0  0  0  0  0  0
   34.5460   35.6740   24.8020 H   0  0  0  0  0  0  0  0  0  0  0  0
   32.7590   34.5900   24.1530 C   0  0  2  0  0  0  0  0  0  0  0  0
   32.4630   33.3840   23.4430 O   0  0  0  0  0  0  0  0  0  0  0  0
   32.8990   33.3990   22.5510 H   0  0  0  0  0  0  0  0  0  0  0  0
   31.6650   35.6220   23.7900 C   0  0  0  0  0  0  0  0  0  0  0  0
   30.6570   35.1390   23.8140 H   0  0  0  0  0  0  0  0  0  0  0  0
   31.8600   36.1030   22.8110 H   0  0  0  0  0  0  0  0  0  0  0  0
   32.6560   34.2880   25.2300 H   0  0  0  0  0  0  0  0  0  0  0  0
   31.5660   36.6360   24.7940 O   0  0  0  0  0  0  0  0  0  0  0  0
   32.3970   37.1670   24.8000 H   0  0  0  0  0  0  0  0  0  0  0  0
  1  3  2  0  0  0  0
  1  7  1  0  0  0  0
  1 21  1  0  0  0  0
  2 12  1  0  0  0  0
  2 17  2  0  0  0  0
  2 18  1  0  0  0  0
  3 13  1  0  0  0  0
  3 14  1  0  0  0  0
  4 16  2  0  0  0  0
  4 19  1  0  0  0  0
  4 20  1  0  0  0  0
  5  6  1  0  0  0  0
  5 10  1  0  0  0  0
  5 11  2  0  0  0  0
  6 12  2  0  0  0  0
  6 22  1  0  0  0  0
  7  8  2  0  0  0  0
  7 27  1  0  0  0  0
  8  9  1  0  0  0  0
  8 23  1  0  0  0  0
  9 13  2  0  0  0  0
  9 24  1  0  0  0  0
 10 18  1  0  0  0  0
 10 19  2  0  0  0  0
 11 16  1  0  0  0  0
 11 25  1  0  0  0  0
 12 15  1  0  0  0  0
 13 15  1  0  0  0  0
 18 43  1  0  0  0  0
 20 26  1  0  0  0  0
 20 30  1  0  0  0  0
 28 29  1  0  0  0  0
 28 33  1  0  0  0  0
 28 34  1  0  0  0  0
 28 35  1  0  0  0  0
 29 30  1  0  0  0  0
 29 36  1  0  0  0  0
 29 37  1  0  0  0  0
 30 31  1  0  0  0  0
 30 38  1  0  0  0  0
 31 32  1  0  0  0  0
 31 39  1  0  0  0  0
 31 40  1  0  0  0  0
 32 33  1  0  0  0  0
 32 41  1  0  0  0  0
 32 42  1  0  0  0  0
 43 44  1  0  0  0  0
 43 45  1  0  0  0  0
 43 46  1  0  0  0  0
 46 47  1  0  0  0  0
 46 49  1  0  0  0  0
 46 52  1  1  0  0  0
 47 48  1  0  0  0  0
 49 50  1  0  0  0  0
 49 51  1  0  0  0  0
 49 53  1  0  0  0  0
 53 54  1  0  0  0  0
M  END
$$$$
