p38a_2u
 OpenBabel02232411163D
Structure written by MMmdl.
 64 68  0  0  0  0  0  0  0  0999 V2000
   38.3060   36.5470   17.1600 C   0  0  0  0  0  0  0  0  0  0  0  0
   34.5730   35.0810   21.2450 C   0  0  0  0  0  0  0  0  0  0  0  0
   37.5320   36.0900   18.2240 C   0  0  0  0  0  0  0  0  0  0  0  0
   34.0140   39.1670   23.7800 C   0  0  0  0  0  0  0  0  0  0  0  0
   34.6670   37.9440   21.4020 C   0  0  0  0  0  0  0  0  0  0  0  0
   35.0720   37.2970   20.1850 C   0  0  0  0  0  0  0  0  0  0  0  0
   37.6520   36.6880   15.9290 C   0  0  0  0  0  0  0  0  0  0  0  0
   36.3070   36.3710   15.7290 C   0  0  0  0  0  0  0  0  0  0  0  0
   35.5530   35.9030   16.8110 C   0  0  0  0  0  0  0  0  0  0  0  0
   34.2980   37.1730   22.5480 C   0  0  0  0  0  0  0  0  0  0  0  0
   34.6330   39.3590   21.5310 C   0  0  0  0  0  0  0  0  0  0  0  0
   35.0680   35.9460   20.1420 C   0  0  0  0  0  0  0  0  0  0  0  0
   36.1710   35.7560   18.0550 C   0  0  0  0  0  0  0  0  0  0  0  0
   38.0700   35.9690   19.4300 F   0  0  0  0  0  0  0  0  0  0  0  0
   35.4630   35.1250   19.0860 O   0  0  0  0  0  0  0  0  0  0  0  0
   34.3220   39.9860   22.6750 N   0  0  0  0  0  0  0  0  0  0  0  0
   34.4450   33.8780   21.1680 O   0  0  0  0  0  0  0  0  0  0  0  0
   34.2350   35.7660   22.4690 N   0  0  0  0  0  0  0  0  0  0  0  0
   34.0070   37.7850   23.7380 N   0  0  0  0  0  0  0  0  0  0  0  0
   33.6430   39.7910   24.9470 N   0  0  0  0  0  0  0  0  0  0  0  0
   39.3580   36.8190   17.2890 H   0  0  0  0  0  0  0  0  0  0  0  0
   35.3810   37.9210   19.3440 H   0  0  0  0  0  0  0  0  0  0  0  0
   35.8310   36.5000   14.7540 H   0  0  0  0  0  0  0  0  0  0  0  0
   34.4900   35.6750   16.6790 H   0  0  0  0  0  0  0  0  0  0  0  0
   34.8660   39.9930   20.6590 H   0  0  0  0  0  0  0  0  0  0  0  0
   33.7460   40.8210   25.0320 H   0  0  0  0  0  0  0  0  0  0  0  0
   38.3400   37.1910   14.9060 F   0  0  0  0  0  0  0  0  0  0  0  0
   32.3560   39.1040   28.4770 C   0  0  0  0  0  0  0  0  0  0  0  0
   32.4400   39.7720   27.0980 C   0  0  0  0  0  0  0  0  0  0  0  0
   33.4940   39.0480   26.2360 C   0  0  0  0  0  0  0  0  0  0  0  0
   34.8480   38.9850   26.9760 C   0  0  0  0  0  0  0  0  0  0  0  0
   34.6480   38.3530   28.3590 C   0  0  0  0  0  0  0  0  0  0  0  0
   33.6450   39.0570   29.1280 O   0  0  0  0  0  0  0  0  0  0  0  0
   31.9490   38.0700   28.3850 H   0  0  0  0  0  0  0  0  0  0  0  0
   31.7540   39.7200   29.1840 H   0  0  0  0  0  0  0  0  0  0  0  0
   32.7150   40.8460   27.2160 H   0  0  0  0  0  0  0  0  0  0  0  0
   31.4460   39.7160   26.5930 H   0  0  0  0  0  0  0  0  0  0  0  0
   33.1320   38.0040   26.0130 H   0  0  0  0  0  0  0  0  0  0  0  0
   35.5670   38.3660   26.3900 H   0  0  0  0  0  0  0  0  0  0  0  0
   35.2680   40.0140   27.0800 H   0  0  0  0  0  0  0  0  0  0  0  0
   34.3460   37.2840   28.2590 H   0  0  0  0  0  0  0  0  0  0  0  0
   35.5560   38.4720   28.9920 H   0  0  0  0  0  0  0  0  0  0  0  0
   31.7130   34.2480   24.9870 C   0  0  0  0  0  0  0  0  0  0  0  0
   32.2530   35.2580   23.9520 C   0  0  0  0  0  0  0  0  0  0  0  0
   33.7090   34.9130   23.6020 C   0  0  0  0  0  0  0  0  0  0  0  0
   34.5670   34.9920   24.8770 C   0  0  0  0  0  0  0  0  0  0  0  0
   34.0400   33.9590   25.8980 C   0  0  0  0  0  0  0  0  0  0  0  0
   31.5900   33.2460   24.4960 H   0  0  0  0  0  0  0  0  0  0  0  0
   30.7030   34.6310   25.3010 H   0  0  0  0  0  0  0  0  0  0  0  0
   32.1850   36.2830   24.3970 H   0  0  0  0  0  0  0  0  0  0  0  0
   31.5980   35.2220   23.0520 H   0  0  0  0  0  0  0  0  0  0  0  0
   33.7370   33.8470   23.2220 H   0  0  0  0  0  0  0  0  0  0  0  0
   35.6340   34.7710   24.6540 H   0  0  0  0  0  0  0  0  0  0  0  0
   34.4970   36.0130   25.3310 H   0  0  0  0  0  0  0  0  0  0  0  0
   34.2210   32.9250   25.4990 H   0  0  0  0  0  0  0  0  0  0  0  0
   34.6090   34.1100   26.8550 H   0  0  0  0  0  0  0  0  0  0  0  0
   32.5840   34.1640   26.1980 N   0  0  0  0  0  0  0  0  0  0  0  0
   31.9680   33.3080   27.5690 S   0  0  0  0  0  0  0  0  0  0  0  0
   32.3380   34.0650   28.7800 O   0  0  0  0  0  0  0  0  0  0  0  0
   32.5420   31.9470   27.5920 O   0  0  0  0  0  0  0  0  0  0  0  0
   30.2440   33.2140   27.4120 C   0  0  0  0  0  0  0  0  0  0  0  0
   29.9130   32.6660   26.4920 H   0  0  0  0  0  0  0  0  0  0  0  0
   29.7850   32.6660   28.2780 H   0  0  0  0  0  0  0  0  0  0  0  0
   29.7460   34.2230   27.3930 H   0  0  0  0  0  0  0  0  0  0  0  0
  1  3  2  0  0  0  0
  1  7  1  0  0  0  0
  1 21  1  0  0  0  0
  2 12  1  0  0  0  0
  2 17  2  0  0  0  0
  2 18  1  0  0  0  0
  3 13  1  0  0  0  0
  3 14  1  0  0  0  0
  4 16  2  0  0  0  0
  4 19  1  0  0  0  0
  4 20  1  0  0  0  0
  5  6  1  0  0  0  0
  5 10  1  0  0  0  0
  5 11  2  0  0  0  0
  6 12  2  0  0  0  0
  6 22  1  0  0  0  0
  7  8  2  0  0  0  0
  7 27  1  0  0  0  0
  8  9  1  0  0  0  0
  8 23  1  0  0  0  0
  9 13  2  0  0  0  0
  9 24  1  0  0  0  0
 10 18  1  0  0  0  0
 10 19  2  0  0  0  0
 11 16  1  0  0  0  0
 11 25  1  0  0  0  0
 12 15  1  0  0  0  0
 13 15  1  0  0  0  0
 18 45  1  0  0  0  0
 20 26  1  0  0  0  0
 20 30  1  0  0  0  0
 28 29  1  0  0  0  0
 28 33  1  0  0  0  0
 28 34  1  0  0  0  0
 28 35  1  0  0  0  0
 29 30  1  0  0  0  0
 29 36  1  0  0  0  0
 29 37  1  0  0  0  0
 30 31  1  0  0  0  0
 30 38  1  0  0  0  0
 31 32  1  0  0  0  0
 31 39  1  0  0  0  0
 31 40  1  0  0  0  0
 32 33  1  0  0  0  0
 32 41  1  0  0  0  0
 32 42  1  0  0  0  0
 43 44  1  0  0  0  0
 43 48  1  0  0  0  0
 43 49  1  0  0  0  0
 43 57  1  0  0  0  0
 44 45  1  0  0  0  0
 44 50  1  0  0  0  0
 44 51  1  0  0  0  0
 45 46  1  0  0  0  0
 45 52  1  0  0  0  0
 46 47  1  0  0  0  0
 46 53  1  0  0  0  0
 46 54  1  0  0  0  0
 47 55  1  0  0  0  0
 47 56  1  0  0  0  0
 47 57  1  0  0  0  0
 57 58  1  0  0  0  0
 58 59  2  0  0  0  0
 58 60  2  0  0  0  0
 58 61  1  0  0  0  0
 61 62  1  0  0  0  0
 61 63  1  0  0  0  0
 61 64  1  0  0  0  0
M  END
$$$$
