6e
                    3D
 Schrodinger Suite 2022-3.
 52 54  0  0  1  0  0  0  0  0999 V2000
   16.1120  -16.0540   23.0490 N   0  3  0  0  0  0  0  0  0  0  0  0
   17.4370  -15.2690   23.0890 C   0  0  1  0  0  0  0  0  0  0  0  0
   17.1570  -13.8460   22.5370 C   0  0  0  0  0  0  0  0  0  0  0  0
   16.1850  -13.1990   22.9210 O   0  0  0  0  0  0  0  0  0  0  0  0
   17.9510  -15.2280   24.5410 C   0  0  0  0  0  0  0  0  0  0  0  0
   19.3840  -14.7620   24.6370 C   0  0  0  0  0  0  0  0  0  0  0  0
   20.4190  -15.5310   24.0810 C   0  0  0  0  0  0  0  0  0  0  0  0
   19.6990  -13.5890   25.3330 C   0  0  0  0  0  0  0  0  0  0  0  0
   21.7460  -15.1150   24.2080 C   0  0  0  0  0  0  0  0  0  0  0  0
   21.0270  -13.1650   25.4440 C   0  0  0  0  0  0  0  0  0  0  0  0
   22.0540  -13.9290   24.8850 C   0  0  0  0  0  0  0  0  0  0  0  0
   18.0090  -13.3310   21.5980 N   0  0  0  0  0  0  0  0  0  0  0  0
   17.7840  -11.9680   21.0210 C   0  0  2  0  0  0  0  0  0  0  0  0
   16.3400  -11.8330   20.4650 C   0  0  0  0  0  0  0  0  0  0  0  0
   15.7650  -12.7180   19.8530 O   0  0  0  0  0  0  0  0  0  0  0  0
   18.8370  -11.8320   19.9020 C   0  0  0  0  0  0  0  0  0  0  0  0
   19.8930  -12.9300   20.1410 C   0  0  0  0  0  0  0  0  0  0  0  0
   19.2310  -13.9880   21.0420 C   0  0  0  0  0  0  0  0  0  0  0  0
   15.7860  -10.5650   20.6210 N   0  0  0  0  0  0  0  0  0  0  0  0
   14.3790  -10.2710   20.2400 C   0  0  0  0  0  0  0  0  0  0  0  0
   13.4310  -10.3000   21.4130 C   0  0  0  0  0  0  0  0  0  0  0  0
   13.4450   -9.2380   22.3300 C   0  0  0  0  0  0  0  0  0  0  0  0
   12.5370   -9.2170   23.3910 C   0  0  0  0  0  0  0  0  0  0  0  0
   11.5770  -10.2200   23.5600 C   0  0  0  0  0  0  0  0  0  0  0  0
   11.5540  -11.2900   22.6630 C   0  0  0  0  0  0  0  0  0  0  0  0
   12.4830  -11.3150   21.6170 C   0  0  0  0  0  0  0  0  0  0  0  0
   14.1680   -8.4320   22.2100 H   0  0  0  0  0  0  0  0  0  0  0  0
   12.6430   -7.9390   24.5370 Cl  0  0  0  0  0  0  0  0  0  0  0  0
   10.8450  -10.1770   24.3760 H   0  0  0  0  0  0  0  0  0  0  0  0
   10.8140  -12.0890   22.7890 H   0  0  0  0  0  0  0  0  0  0  0  0
   12.4440  -12.3500   20.7790 F   0  0  0  0  0  0  0  0  0  0  0  0
   18.9090  -13.0170   25.8120 H   0  0  0  0  0  0  0  0  0  0  0  0
   21.2400  -12.2320   25.9740 H   0  0  0  0  0  0  0  0  0  0  0  0
   22.5390  -15.7320   23.7740 H   0  0  0  0  0  0  0  0  0  0  0  0
   23.0970  -13.6140   24.9760 H   0  0  0  0  0  0  0  0  0  0  0  0
   20.1870  -16.4630   23.5580 H   0  0  0  0  0  0  0  0  0  0  0  0
   16.2550  -17.0010   23.5090 H   0  0  0  0  0  0  0  0  0  0  0  0
   15.3450  -15.5090   23.5610 H   0  0  0  0  0  0  0  0  0  0  0  0
   15.8210  -16.2260   22.0450 H   0  0  0  0  0  0  0  0  0  0  0  0
   18.1630  -15.8540   22.4520 H   0  0  0  0  0  0  0  0  0  0  0  0
   17.9130  -16.2710   24.9690 H   0  0  0  0  0  0  0  0  0  0  0  0
   17.2840  -14.5790   25.1630 H   0  0  0  0  0  0  0  0  0  0  0  0
   17.9790  -11.2150   21.8330 H   0  0  0  0  0  0  0  0  0  0  0  0
   19.3150  -10.8330   19.9620 H   0  0  0  0  0  0  0  0  0  0  0  0
   18.3760  -11.9770   18.8960 H   0  0  0  0  0  0  0  0  0  0  0  0
   20.7940  -12.5110   20.6480 H   0  0  0  0  0  0  0  0  0  0  0  0
   20.2190  -13.3950   19.1790 H   0  0  0  0  0  0  0  0  0  0  0  0
   18.9410  -14.8930   20.4470 H   0  0  0  0  0  0  0  0  0  0  0  0
   19.9180  -14.2890   21.8750 H   0  0  0  0  0  0  0  0  0  0  0  0
   16.2310   -9.8750   21.2510 H   0  0  0  0  0  0  0  0  0  0  0  0
   14.0620  -10.9880   19.4330 H   0  0  0  0  0  0  0  0  0  0  0  0
   14.3670   -9.2300   19.8030 H   0  0  0  0  0  0  0  0  0  0  0  0
  1  2  1  0  0  0  0
  1 37  1  0  0  0  0
  1 38  1  0  0  0  0
  1 39  1  0  0  0  0
  2  3  1  0  0  0  0
  2  5  1  0  0  0  0
  2 40  1  0  0  0  0
  3  4  2  0  0  0  0
  3 12  1  0  0  0  0
  5  6  1  0  0  0  0
  5 41  1  0  0  0  0
  5 42  1  0  0  0  0
  6  7  2  0  0  0  0
  6  8  1  0  0  0  0
  7  9  1  0  0  0  0
  7 36  1  0  0  0  0
  8 10  2  0  0  0  0
  8 32  1  0  0  0  0
  9 11  2  0  0  0  0
  9 34  1  0  0  0  0
 10 11  1  0  0  0  0
 10 33  1  0  0  0  0
 11 35  1  0  0  0  0
 12 13  1  0  0  0  0
 12 18  1  0  0  0  0
 13 14  1  0  0  0  0
 13 16  1  0  0  0  0
 13 43  1  0  0  0  0
 14 15  2  0  0  0  0
 14 19  1  0  0  0  0
 16 17  1  0  0  0  0
 16 44  1  0  0  0  0
 16 45  1  0  0  0  0
 17 18  1  0  0  0  0
 17 46  1  0  0  0  0
 17 47  1  0  0  0  0
 18 48  1  0  0  0  0
 18 49  1  0  0  0  0
 19 20  1  0  0  0  0
 19 50  1  0  0  0  0
 20 21  1  0  0  0  0
 20 51  1  0  0  0  0
 20 52  1  0  0  0  0
 21 22  2  0  0  0  0
 21 26  1  0  0  0  0
 22 23  1  0  0  0  0
 22 27  1  0  0  0  0
 23 24  2  0  0  0  0
 23 28  1  0  0  0  0
 24 25  1  0  0  0  0
 24 29  1  0  0  0  0
 25 26  2  0  0  0  0
 25 30  1  0  0  0  0
 26 31  1  0  0  0  0
M  CHG  1   1   1
M  END
$$$$
