p38a_2y
 OpenBabel02232411163D
Structure written by MMmdl.
 45 47  0  0  0  0  0  0  0  0999 V2000
   38.2290   36.5230   17.1560 C   0  0  0  0  0  0  0  0  0  0  0  0
   34.6240   35.0870   21.1960 C   0  0  0  0  0  0  0  0  0  0  0  0
   37.3990   36.0740   18.1790 C   0  0  0  0  0  0  0  0  0  0  0  0
   34.4270   39.0960   23.8950 C   0  0  0  0  0  0  0  0  0  0  0  0
   34.3350   38.9150   26.3860 C   0  0  0  0  0  0  0  0  0  0  0  0
   34.7050   37.9600   21.4000 C   0  0  0  0  0  0  0  0  0  0  0  0
   34.9660   37.3360   20.1320 C   0  0  0  0  0  0  0  0  0  0  0  0
   37.6260   36.7200   15.9060 C   0  0  0  0  0  0  0  0  0  0  0  0
   36.2770   36.4640   15.6520 C   0  0  0  0  0  0  0  0  0  0  0  0
   35.4650   36.0030   16.6940 C   0  0  0  0  0  0  0  0  0  0  0  0
   34.5370   37.1570   22.5680 C   0  0  0  0  0  0  0  0  0  0  0  0
   34.6240   39.3680   21.5720 C   0  0  0  0  0  0  0  0  0  0  0  0
   34.9690   35.9840   20.0630 C   0  0  0  0  0  0  0  0  0  0  0  0
   36.0310   35.8030   17.9570 C   0  0  0  0  0  0  0  0  0  0  0  0
   34.3070   34.9420   23.6960 C   0  0  0  0  0  0  0  0  0  0  0  0
   37.8910   35.8980   19.3990 F   0  0  0  0  0  0  0  0  0  0  0  0
   35.2430   35.1980   18.9430 O   0  0  0  0  0  0  0  0  0  0  0  0
   34.4690   39.9470   22.7720 N   0  0  0  0  0  0  0  0  0  0  0  0
   34.4540   33.8900   21.1240 O   0  0  0  0  0  0  0  0  0  0  0  0
   34.4900   35.7580   22.4630 N   0  0  0  0  0  0  0  0  0  0  0  0
   34.4040   37.7190   23.8130 N   0  0  0  0  0  0  0  0  0  0  0  0
   34.4970   39.6990   25.1370 N   0  0  0  0  0  0  0  0  0  0  0  0
   39.2870   36.7470   17.3250 H   0  0  0  0  0  0  0  0  0  0  0  0
   35.3520   38.8510   26.8680 H   0  0  0  0  0  0  0  0  0  0  0  0
   35.1720   37.9740   19.2700 H   0  0  0  0  0  0  0  0  0  0  0  0
   35.8430   36.6360   14.6650 H   0  0  0  0  0  0  0  0  0  0  0  0
   34.4020   35.8160   16.5150 H   0  0  0  0  0  0  0  0  0  0  0  0
   34.6810   40.0360   20.6950 H   0  0  0  0  0  0  0  0  0  0  0  0
   35.0820   35.2200   24.4630 H   0  0  0  0  0  0  0  0  0  0  0  0
   33.2910   35.1320   24.1360 H   0  0  0  0  0  0  0  0  0  0  0  0
   34.4070   33.8510   23.4580 H   0  0  0  0  0  0  0  0  0  0  0  0
   34.2470   40.7050   25.2050 H   0  0  0  0  0  0  0  0  0  0  0  0
   38.3700   37.2140   14.9190 F   0  0  0  0  0  0  0  0  0  0  0  0
   33.3370   39.5720   27.3980 C   0  0  0  0  0  0  0  0  0  0  0  0
   33.9960   37.8650   26.1650 H   0  0  0  0  0  0  0  0  0  0  0  0
   34.0270   40.6940   28.1840 C   0  0  0  0  0  0  0  0  0  0  0  0
   32.2000   40.0910   26.6720 O   0  0  0  0  0  0  0  0  0  0  0  0
   32.7450   38.5060   28.3230 C   0  0  0  0  0  0  0  0  0  0  0  0
   32.4590   40.9640   26.2560 H   0  0  0  0  0  0  0  0  0  0  0  0
   33.3000   41.2170   28.8440 H   0  0  0  0  0  0  0  0  0  0  0  0
   34.8330   40.2730   28.8320 H   0  0  0  0  0  0  0  0  0  0  0  0
   34.4930   41.4420   27.5050 H   0  0  0  0  0  0  0  0  0  0  0  0
   32.1290   38.9800   29.1220 H   0  0  0  0  0  0  0  0  0  0  0  0
   32.0990   37.7980   27.7550 H   0  0  0  0  0  0  0  0  0  0  0  0
   33.5640   37.9270   28.8140 H   0  0  0  0  0  0  0  0  0  0  0  0
  1  3  2  0  0  0  0
  1  8  1  0  0  0  0
  1 23  1  0  0  0  0
  2 13  1  0  0  0  0
  2 19  2  0  0  0  0
  2 20  1  0  0  0  0
  3 14  1  0  0  0  0
  3 16  1  0  0  0  0
  4 18  2  0  0  0  0
  4 21  1  0  0  0  0
  4 22  1  0  0  0  0
  5 22  1  0  0  0  0
  5 24  1  0  0  0  0
  5 34  1  0  0  0  0
  5 35  1  0  0  0  0
  6  7  1  0  0  0  0
  6 11  1  0  0  0  0
  6 12  2  0  0  0  0
  7 13  2  0  0  0  0
  7 25  1  0  0  0  0
  8  9  2  0  0  0  0
  8 33  1  0  0  0  0
  9 10  1  0  0  0  0
  9 26  1  0  0  0  0
 10 14  2  0  0  0  0
 10 27  1  0  0  0  0
 11 20  1  0  0  0  0
 11 21  2  0  0  0  0
 12 18  1  0  0  0  0
 12 28  1  0  0  0  0
 13 17  1  0  0  0  0
 14 17  1  0  0  0  0
 15 20  1  0  0  0  0
 15 29  1  0  0  0  0
 15 30  1  0  0  0  0
 15 31  1  0  0  0  0
 22 32  1  0  0  0  0
 34 36  1  0  0  0  0
 34 37  1  0  0  0  0
 34 38  1  0  0  0  0
 36 40  1  0  0  0  0
 36 41  1  0  0  0  0
 36 42  1  0  0  0  0
 37 39  1  0  0  0  0
 38 43  1  0  0  0  0
 38 44  1  0  0  0  0
 38 45  1  0  0  0  0
M  END
$$$$
