18637-1
                    3D
 Schrodinger Suite 2022-3.
 53 54  0  0  1  0  0  0  0  0999 V2000
   25.8060    4.7540   30.7650 C   0  0  0  0  0  0  0  0  0  0  0  0
   24.5080    4.9550   30.2740 C   0  0  0  0  0  0  0  0  0  0  0  0
   23.4470    4.0710   30.5620 C   0  0  0  0  0  0  0  0  0  0  0  0
   23.7250    2.9410   31.3480 C   0  0  0  0  0  0  0  0  0  0  0  0
   25.0110    2.7200   31.8320 C   0  0  0  0  0  0  0  0  0  0  0  0
   26.0760    3.6320   31.5500 C   0  0  0  0  0  0  0  0  0  0  0  0
   22.0640    4.3010   30.0260 C   0  0  0  0  0  0  0  0  0  0  0  0
   21.2350    5.2730   30.8560 C   0  0  0  0  0  0  0  0  0  0  0  0
   21.8020    6.5670   30.9270 N   0  0  0  0  0  0  0  0  0  0  0  0
   21.2380    7.7200   31.5090 C   0  0  0  0  0  0  0  0  0  0  0  0
   20.1620    5.0030   31.3510 O   0  0  0  0  0  0  0  0  0  0  0  0
   21.9810    8.8510   31.2010 N   0  0  0  0  0  0  0  0  0  0  0  0
   21.5180   10.0430   31.6380 C   0  0  0  0  0  0  0  0  0  0  0  0
   20.3350   10.2150   32.4180 C   0  0  0  0  0  0  0  0  0  0  0  0
   19.6140    9.0230   32.7530 C   0  0  0  0  0  0  0  0  0  0  0  0
   20.0830    7.7680   32.2830 C   0  0  0  0  0  0  0  0  0  0  0  0
   25.4200    1.6470   32.6030 O   0  0  0  0  0  0  0  0  0  0  0  0
   24.4370    0.6330   32.9340 C   0  0  0  0  0  0  0  0  0  0  0  0
   24.1480    6.0140   29.4520 O   0  0  0  0  0  0  0  0  0  0  0  0
   25.0470    7.1550   29.3680 C   0  0  0  0  0  0  0  0  0  0  0  0
   18.4660    9.0760   33.5020 N   0  0  0  0  0  0  0  0  0  0  0  0
   19.9320   11.5180   32.7770 C   0  0  0  0  0  0  0  0  0  0  0  0
   22.1780   11.1770   31.3090 O   0  0  0  0  0  0  0  0  0  0  0  0
   23.4500   11.0790   30.5630 C   0  0  0  0  0  0  0  0  0  0  0  0
   23.1840   10.8920   29.0840 C   0  0  0  0  0  0  0  0  0  0  0  0
   19.6500   12.6140   33.0300 N   0  0  0  0  0  0  0  0  0  0  0  0
   26.6020    5.4710   30.5430 H   0  0  0  0  0  0  0  0  0  0  0  0
   22.9240    2.2310   31.5690 H   0  0  0  0  0  0  0  0  0  0  0  0
   19.5220    6.8610   32.5170 H   0  0  0  0  0  0  0  0  0  0  0  0
   21.5140    3.3250   29.9770 H   0  0  0  0  0  0  0  0  0  0  0  0
   22.1390    4.7210   28.9860 H   0  0  0  0  0  0  0  0  0  0  0  0
   22.7130    6.7300   30.4260 H   0  0  0  0  0  0  0  0  0  0  0  0
   23.6260    1.0710   33.5540 H   0  0  0  0  0  0  0  0  0  0  0  0
   24.0550    0.1560   32.0060 H   0  0  0  0  0  0  0  0  0  0  0  0
   25.0530   -0.0830   33.5290 H   0  0  0  0  0  0  0  0  0  0  0  0
   24.4070    7.8990   28.8400 H   0  0  0  0  0  0  0  0  0  0  0  0
   25.3210    7.5150   30.3840 H   0  0  0  0  0  0  0  0  0  0  0  0
   25.9360    6.8780   28.7630 H   0  0  0  0  0  0  0  0  0  0  0  0
   17.9700    8.2080   33.7810 H   0  0  0  0  0  0  0  0  0  0  0  0
   18.0780    9.9640   33.8200 H   0  0  0  0  0  0  0  0  0  0  0  0
   24.0710   10.2580   30.9880 H   0  0  0  0  0  0  0  0  0  0  0  0
   23.8720   12.0870   30.7910 H   0  0  0  0  0  0  0  0  0  0  0  0
   24.1550   10.9190   28.5300 H   0  0  0  0  0  0  0  0  0  0  0  0
   22.6920    9.9120   28.8820 H   0  0  0  0  0  0  0  0  0  0  0  0
   22.5360   11.7040   28.6840 H   0  0  0  0  0  0  0  0  0  0  0  0
   27.3910    2.8750   32.9970 H   0  0  0  0  0  0  0  0  0  0  0  0
   27.3690    3.3890   32.1020 N   0  0  0  0  0  0  0  0  0  0  0  0
   28.5900    3.5850   31.4100 C   0  0  0  0  0  0  0  0  0  0  0  0
   28.5970    3.9800   30.2560 O   0  0  0  0  0  0  0  0  0  0  0  0
   29.8080    3.2720   32.2210 C   0  0  0  0  0  0  0  0  0  0  0  0
   30.7400    3.5720   31.6760 H   0  0  0  0  0  0  0  0  0  0  0  0
   29.8050    3.8140   33.2020 H   0  0  0  0  0  0  0  0  0  0  0  0
   29.8830    2.1760   32.4410 H   0  0  0  0  0  0  0  0  0  0  0  0
  1  2  1  0  0  0  0
  1  6  2  0  0  0  0
  1 27  1  0  0  0  0
  2  3  2  0  0  0  0
  2 19  1  0  0  0  0
  3  4  1  0  0  0  0
  3  7  1  0  0  0  0
  4  5  2  0  0  0  0
  4 28  1  0  0  0  0
  5  6  1  0  0  0  0
  5 17  1  0  0  0  0
  6 47  1  0  0  0  0
  7  8  1  0  0  0  0
  7 30  1  0  0  0  0
  7 31  1  0  0  0  0
  8  9  1  0  0  0  0
  8 11  2  0  0  0  0
  9 10  1  0  0  0  0
  9 32  1  0  0  0  0
 10 12  1  0  0  0  0
 10 16  2  0  0  0  0
 12 13  2  0  0  0  0
 13 14  1  0  0  0  0
 13 23  1  0  0  0  0
 14 15  2  0  0  0  0
 14 22  1  0  0  0  0
 15 16  1  0  0  0  0
 15 21  1  0  0  0  0
 16 29  1  0  0  0  0
 17 18  1  0  0  0  0
 18 33  1  0  0  0  0
 18 34  1  0  0  0  0
 18 35  1  0  0  0  0
 19 20  1  0  0  0  0
 20 36  1  0  0  0  0
 20 37  1  0  0  0  0
 20 38  1  0  0  0  0
 21 39  1  0  0  0  0
 21 40  1  0  0  0  0
 22 26  3  0  0  0  0
 23 24  1  0  0  0  0
 24 25  1  0  0  0  0
 24 41  1  0  0  0  0
 24 42  1  0  0  0  0
 25 43  1  0  0  0  0
 25 44  1  0  0  0  0
 25 45  1  0  0  0  0
 46 47  1  0  0  0  0
 47 48  1  0  0  0  0
 48 49  2  0  0  0  0
 48 50  1  0  0  0  0
 50 51  1  0  0  0  0
 50 52  1  0  0  0  0
 50 53  1  0  0  0  0
M  END
$$$$
