18639-1
 OpenBabel02232411163D
Structure written by MMmdl.
 48 49  0  0  0  0  0  0  0  0999 V2000
   24.4440   10.8990   30.7570 C   0  0  0  0  0  0  0  0  0  0  0  0
   23.1180   11.2580   30.1180 C   0  0  0  0  0  0  0  0  0  0  0  0
   22.0430   11.3190   31.1300 O   0  0  0  0  0  0  0  0  0  0  0  0
   21.4570   10.1710   31.5390 C   0  0  0  0  0  0  0  0  0  0  0  0
   21.9380    8.9810   31.1070 N   0  0  0  0  0  0  0  0  0  0  0  0
   21.2430    7.8390   31.4730 C   0  0  0  0  0  0  0  0  0  0  0  0
   20.1050    7.8710   32.2710 C   0  0  0  0  0  0  0  0  0  0  0  0
   19.6150    9.1230   32.7330 C   0  0  0  0  0  0  0  0  0  0  0  0
   18.4800    9.1600   33.5010 N   0  0  0  0  0  0  0  0  0  0  0  0
   20.3060   10.3230   32.3690 C   0  0  0  0  0  0  0  0  0  0  0  0
   19.8910   11.6210   32.7350 C   0  0  0  0  0  0  0  0  0  0  0  0
   19.6020   12.7150   32.9930 N   0  0  0  0  0  0  0  0  0  0  0  0
   21.8320    6.6760   30.9250 N   0  0  0  0  0  0  0  0  0  0  0  0
   21.2640    5.3860   30.8680 C   0  0  0  0  0  0  0  0  0  0  0  0
   20.1890    5.1130   31.3590 O   0  0  0  0  0  0  0  0  0  0  0  0
   22.0980    4.3970   30.0600 C   0  0  0  0  0  0  0  0  0  0  0  0
   23.4720    4.1480   30.6080 C   0  0  0  0  0  0  0  0  0  0  0  0
   24.5560    5.0250   30.2830 C   0  0  0  0  0  0  0  0  0  0  0  0
   24.1780    6.0760   29.4570 O   0  0  0  0  0  0  0  0  0  0  0  0
   25.1230    7.1680   29.2790 C   0  0  0  0  0  0  0  0  0  0  0  0
   25.8440    4.7930   30.7400 C   0  0  0  0  0  0  0  0  0  0  0  0
   26.0960    3.6770   31.5660 C   0  0  0  0  0  0  0  0  0  0  0  0
   27.4560    3.4350   32.0540 N   0  3  0  0  0  0  0  0  0  0  0  0
   27.6120    2.6220   32.9530 O   0  5  0  0  0  0  0  0  0  0  0  0
   28.3810    4.0520   31.5390 O   0  0  0  0  0  0  0  0  0  0  0  0
   25.0370    2.7990   31.8970 C   0  0  0  0  0  0  0  0  0  0  0  0
   23.7340    3.0430   31.4020 C   0  0  0  0  0  0  0  0  0  0  0  0
   25.4040    1.7610   32.6980 O   0  0  0  0  0  0  0  0  0  0  0  0
   24.4210    0.7120   32.9420 C   0  0  0  0  0  0  0  0  0  0  0  0
   25.2340   10.8610   29.9660 H   0  0  0  0  0  0  0  0  0  0  0  0
   24.7390   11.6540   31.5160 H   0  0  0  0  0  0  0  0  0  0  0  0
   24.3990    9.8940   31.2390 H   0  0  0  0  0  0  0  0  0  0  0  0
   23.0920   12.3160   29.7610 H   0  0  0  0  0  0  0  0  0  0  0  0
   22.8300   10.5420   29.3160 H   0  0  0  0  0  0  0  0  0  0  0  0
   19.5730    6.9540   32.5310 H   0  0  0  0  0  0  0  0  0  0  0  0
   17.9810    8.2860   33.7570 H   0  0  0  0  0  0  0  0  0  0  0  0
   18.0680   10.0440   33.8000 H   0  0  0  0  0  0  0  0  0  0  0  0
   22.7410    6.8350   30.4190 H   0  0  0  0  0  0  0  0  0  0  0  0
   21.5370    3.4260   30.0060 H   0  0  0  0  0  0  0  0  0  0  0  0
   22.1950    4.8080   29.0150 H   0  0  0  0  0  0  0  0  0  0  0  0
   25.4860    7.5400   30.2610 H   0  0  0  0  0  0  0  0  0  0  0  0
   25.9500    6.8240   28.6220 H   0  0  0  0  0  0  0  0  0  0  0  0
   24.4830    7.9280   28.7730 H   0  0  0  0  0  0  0  0  0  0  0  0
   26.6760    5.4500   30.4590 H   0  0  0  0  0  0  0  0  0  0  0  0
   22.9270    2.3460   31.6430 H   0  0  0  0  0  0  0  0  0  0  0  0
   25.0210   -0.0200   33.5340 H   0  0  0  0  0  0  0  0  0  0  0  0
   23.5750    1.1120   33.5410 H   0  0  0  0  0  0  0  0  0  0  0  0
   24.0880    0.2680   31.9780 H   0  0  0  0  0  0  0  0  0  0  0  0
  1  2  1  0  0  0  0
  1 30  1  0  0  0  0
  1 31  1  0  0  0  0
  1 32  1  0  0  0  0
  2  3  1  0  0  0  0
  2 33  1  0  0  0  0
  2 34  1  0  0  0  0
  3  4  1  0  0  0  0
  4 10  2  0  0  0  0
  4  5  1  0  0  0  0
  5  6  2  0  0  0  0
  6  7  1  0  0  0  0
  6 13  1  0  0  0  0
  7  8  2  0  0  0  0
  7 35  1  0  0  0  0
  8  9  1  0  0  0  0
  8 10  1  0  0  0  0
  9 36  1  0  0  0  0
  9 37  1  0  0  0  0
 10 11  1  0  0  0  0
 11 12  3  0  0  0  0
 13 14  1  0  0  0  0
 13 38  1  0  0  0  0
 14 15  2  0  0  0  0
 14 16  1  0  0  0  0
 16 17  1  0  0  0  0
 16 39  1  0  0  0  0
 16 40  1  0  0  0  0
 17 27  2  0  0  0  0
 17 18  1  0  0  0  0
 18 19  1  0  0  0  0
 18 21  2  0  0  0  0
 19 20  1  0  0  0  0
 20 41  1  0  0  0  0
 20 42  1  0  0  0  0
 20 43  1  0  0  0  0
 21 22  1  0  0  0  0
 21 44  1  0  0  0  0
 22 23  1  0  0  0  0
 22 26  2  0  0  0  0
 23 24  1  0  0  0  0
 23 25  2  0  0  0  0
 26 27  1  0  0  0  0
 26 28  1  0  0  0  0
 27 45  1  0  0  0  0
 28 29  1  0  0  0  0
 29 46  1  0  0  0  0
 29 47  1  0  0  0  0
 29 48  1  0  0  0  0
M  CHG  2  23   1  24  -1
M  END
$$$$
