57
                    3D
 Schrodinger Suite 2022-3.
 47 50  0  0  1  0  0  0  0  0999 V2000
    3.3160  -48.2670    7.1970 O   0  0  0  0  0  0  0  0  0  0  0  0
    2.8820  -49.1250    6.4150 C   0  0  0  0  0  0  0  0  0  0  0  0
    3.5350  -49.7800    5.5800 O   0  5  0  0  0  0  0  0  0  0  0  0
    1.3780  -49.4680    6.4520 C   0  0  0  0  0  0  0  0  0  0  0  0
   -0.4510  -50.8380    6.6580 C   0  0  0  0  0  0  0  0  0  0  0  0
   -1.3560  -51.8940    6.8730 C   0  0  0  0  0  0  0  0  0  0  0  0
   -2.6920  -51.6690    6.5780 C   0  0  0  0  0  0  0  0  0  0  0  0
   -3.1370  -50.4220    6.0790 C   0  0  0  0  0  0  0  0  0  0  0  0
   -2.2530  -49.3740    5.8660 C   0  0  0  0  0  0  0  0  0  0  0  0
   -0.8900  -49.5590    6.1510 C   0  0  0  0  0  0  0  0  0  0  0  0
    0.2780  -48.7160    6.0470 C   0  0  0  0  0  0  0  0  0  0  0  0
    0.2330  -47.3010    5.5900 C   0  0  0  0  0  0  0  0  0  0  0  0
    0.2120  -46.2900    6.7520 C   0  0  0  0  0  0  0  0  0  0  0  0
   -0.9640  -46.4460    7.7100 C   0  0  0  0  0  0  0  0  0  0  0  0
   -2.1050  -45.7940    7.0310 O   0  0  0  0  0  0  0  0  0  0  0  0
   -3.3090  -45.8020    7.6670 C   0  0  0  0  0  0  0  0  0  0  0  0
   -5.8840  -45.6050    8.7800 C   0  0  0  0  0  0  0  0  0  0  0  0
   -4.9080  -46.3500    9.3950 C   0  0  0  0  0  0  0  0  0  0  0  0
   -3.6030  -46.4560    8.8500 C   0  0  0  0  0  0  0  0  0  0  0  0
   -1.0360  -52.8620    7.2580 H   0  0  0  0  0  0  0  0  0  0  0  0
   -3.4230  -52.4640    6.7320 H   0  0  0  0  0  0  0  0  0  0  0  0
   -4.1980  -50.2940    5.8610 H   0  0  0  0  0  0  0  0  0  0  0  0
   -2.6200  -48.4190    5.4860 H   0  0  0  0  0  0  0  0  0  0  0  0
   -0.6920  -47.1480    4.9750 H   0  0  0  0  0  0  0  0  0  0  0  0
    1.1200  -47.0700    4.9510 H   0  0  0  0  0  0  0  0  0  0  0  0
    0.1810  -45.2580    6.3310 H   0  0  0  0  0  0  0  0  0  0  0  0
    1.1450  -46.4160    7.3550 H   0  0  0  0  0  0  0  0  0  0  0  0
   -0.8060  -45.8720    8.6480 H   0  0  0  0  0  0  0  0  0  0  0  0
   -1.2450  -47.5060    7.8800 H   0  0  0  0  0  0  0  0  0  0  0  0
   -2.8830  -47.0650    9.3860 H   0  0  0  0  0  0  0  0  0  0  0  0
   -5.6150  -44.9540    7.5370 C   0  0  0  0  0  0  0  0  0  0  0  0
   -4.3170  -45.0370    6.9650 C   0  0  0  0  0  0  0  0  0  0  0  0
   -4.0640  -44.4240    5.7050 C   0  0  0  0  0  0  0  0  0  0  0  0
   -5.0610  -43.7490    5.0420 C   0  0  0  0  0  0  0  0  0  0  0  0
   -6.3650  -43.6770    5.6040 C   0  0  0  0  0  0  0  0  0  0  0  0
   -6.6370  -44.2570    6.8190 C   0  0  0  0  0  0  0  0  0  0  0  0
   -3.0710  -44.5220    5.2610 H   0  0  0  0  0  0  0  0  0  0  0  0
   -4.8700  -43.2730    4.0840 H   0  0  0  0  0  0  0  0  0  0  0  0
   -7.1460  -43.1590    5.0520 H   0  0  0  0  0  0  0  0  0  0  0  0
   -7.6380  -44.2110    7.2450 H   0  0  0  0  0  0  0  0  0  0  0  0
   -5.1310  -46.8840   10.3210 H   0  0  0  0  0  0  0  0  0  0  0  0
   -6.8800  -45.5210    9.2130 H   0  0  0  0  0  0  0  0  0  0  0  0
    1.7640  -51.8360    7.3880 C   0  0  0  0  0  0  0  0  0  0  0  0
    1.1110  -52.6270    7.8530 H   0  0  0  0  0  0  0  0  0  0  0  0
    2.3730  -52.3310    6.5840 H   0  0  0  0  0  0  0  0  0  0  0  0
    2.4500  -51.4570    8.1910 H   0  0  0  0  0  0  0  0  0  0  0  0
    0.9410  -50.7490    6.8400 N   0  0  0  0  0  0  0  0  0  0  0  0
  1  2  2  0  0  0  0
  2  3  1  0  0  0  0
  2  4  1  0  0  0  0
  4 11  2  0  0  0  0
  4 47  1  0  0  0  0
  5  6  1  0  0  0  0
  5 10  2  0  0  0  0
  5 47  1  0  0  0  0
  6  7  2  0  0  0  0
  6 20  1  0  0  0  0
  7  8  1  0  0  0  0
  7 21  1  0  0  0  0
  8  9  2  0  0  0  0
  8 22  1  0  0  0  0
  9 10  1  0  0  0  0
  9 23  1  0  0  0  0
 10 11  1  0  0  0  0
 11 12  1  0  0  0  0
 12 24  1  0  0  0  0
 12 25  1  0  0  0  0
 12 13  1  0  0  0  0
 13 14  1  0  0  0  0
 13 26  1  0  0  0  0
 13 27  1  0  0  0  0
 14 15  1  0  0  0  0
 14 28  1  0  0  0  0
 14 29  1  0  0  0  0
 15 16  1  0  0  0  0
 16 19  2  0  0  0  0
 16 32  1  0  0  0  0
 17 18  2  0  0  0  0
 17 31  1  0  0  0  0
 17 42  1  0  0  0  0
 18 19  1  0  0  0  0
 18 41  1  0  0  0  0
 19 30  1  0  0  0  0
 31 32  2  0  0  0  0
 31 36  1  0  0  0  0
 32 33  1  0  0  0  0
 33 34  2  0  0  0  0
 33 37  1  0  0  0  0
 34 35  1  0  0  0  0
 34 38  1  0  0  0  0
 35 36  2  0  0  0  0
 35 39  1  0  0  0  0
 36 40  1  0  0  0  0
 43 44  1  0  0  0  0
 43 45  1  0  0  0  0
 43 46  1  0  0  0  0
 43 47  1  0  0  0  0
M  CHG  1   3  -1
M  END
$$$$
