40
 OpenBabel02232411163D
Structure written by MMmdl.
 49 52  0  0  0  0  0  0  0  0999 V2000
    4.4750  -51.3290    7.3580 O   0  0  0  0  0  0  0  0  0  0  0  0
    3.8060  -50.2770    7.3250 C   0  0  0  0  0  0  0  0  0  0  0  0
    4.2250  -49.1310    7.5430 O   0  5  0  0  0  0  0  0  0  0  0  0
    2.3190  -50.4340    6.9650 C   0  0  0  0  0  0  0  0  0  0  0  0
    0.2880  -51.4700    6.8990 C   0  0  0  0  0  0  0  0  0  0  0  0
   -0.8040  -52.3400    7.0780 C   0  0  0  0  0  0  0  0  0  0  0  0
   -2.0250  -51.9500    6.5550 C   0  0  0  0  0  0  0  0  0  0  0  0
   -2.1600  -50.7290    5.8520 C   0  0  0  0  0  0  0  0  0  0  0  0
   -1.0830  -49.8770    5.6590 C   0  0  0  0  0  0  0  0  0  0  0  0
    0.1740  -50.2140    6.1930 C   0  0  0  0  0  0  0  0  0  0  0  0
    1.4690  -49.5760    6.2660 C   0  0  0  0  0  0  0  0  0  0  0  0
    1.8900  -48.2510    5.7290 C   0  0  0  0  0  0  0  0  0  0  0  0
    0.8230  -47.1440    5.7570 C   0  0  0  0  0  0  0  0  0  0  0  0
    0.1600  -47.0400    7.1280 C   0  0  0  0  0  0  0  0  0  0  0  0
   -1.1330  -46.3870    6.8650 O   0  0  0  0  0  0  0  0  0  0  0  0
   -2.2180  -46.7200    7.6230 C   0  0  0  0  0  0  0  0  0  0  0  0
   -3.1450  -45.6640    7.7150 C   0  0  0  0  0  0  0  0  0  0  0  0
   -4.2970  -45.8870    8.4600 C   0  0  0  0  0  0  0  0  0  0  0  0
   -4.5650  -47.0880    9.1200 C   0  0  0  0  0  0  0  0  0  0  0  0
   -3.6330  -48.1230    8.9840 C   0  0  0  0  0  0  0  0  0  0  0  0
   -2.4710  -47.9630    8.2290 C   0  0  0  0  0  0  0  0  0  0  0  0
   -0.6990  -53.2810    7.6170 H   0  0  0  0  0  0  0  0  0  0  0  0
   -2.9050  -52.5810    6.6870 H   0  0  0  0  0  0  0  0  0  0  0  0
   -3.1440  -50.4570    5.4680 H   0  0  0  0  0  0  0  0  0  0  0  0
   -1.2330  -48.9500    5.1080 H   0  0  0  0  0  0  0  0  0  0  0  0
    2.7700  -47.8940    6.3350 H   0  0  0  0  0  0  0  0  0  0  0  0
    2.2240  -48.3830    4.6710 H   0  0  0  0  0  0  0  0  0  0  0  0
    0.0260  -47.3420    4.9980 H   0  0  0  0  0  0  0  0  0  0  0  0
    1.2980  -46.1710    5.4870 H   0  0  0  0  0  0  0  0  0  0  0  0
    0.6700  -46.3370    7.8160 H   0  0  0  0  0  0  0  0  0  0  0  0
   -0.0100  -48.0360    7.5830 H   0  0  0  0  0  0  0  0  0  0  0  0
   -2.9320  -44.7290    7.2140 H   0  0  0  0  0  0  0  0  0  0  0  0
   -1.8150  -48.8190    8.0830 H   0  0  0  0  0  0  0  0  0  0  0  0
    1.6100  -51.5850    7.3480 N   0  0  0  0  0  0  0  0  0  0  0  0
    1.9590  -52.3880    7.8580 H   0  0  0  0  0  0  0  0  0  0  0  0
   -3.8340  -49.0780    9.4750 H   0  0  0  0  0  0  0  0  0  0  0  0
   -5.4720  -47.2250    9.7040 H   0  0  0  0  0  0  0  0  0  0  0  0
   -5.2210  -44.8340    8.6490 O   0  0  0  0  0  0  0  0  0  0  0  0
   -7.8460  -44.2890    5.4640 C   0  0  0  0  0  0  0  0  0  0  0  0
   -8.2990  -44.8020    6.6850 C   0  0  0  0  0  0  0  0  0  0  0  0
   -7.4140  -44.9820    7.7490 C   0  0  0  0  0  0  0  0  0  0  0  0
   -6.0710  -44.6400    7.5530 C   0  0  0  0  0  0  0  0  0  0  0  0
   -5.6010  -44.0870    6.3560 C   0  0  0  0  0  0  0  0  0  0  0  0
   -6.5070  -43.9200    5.3080 C   0  0  0  0  0  0  0  0  0  0  0  0
   -8.5430  -44.1750    4.6390 H   0  0  0  0  0  0  0  0  0  0  0  0
   -9.3490  -45.0600    6.8150 H   0  0  0  0  0  0  0  0  0  0  0  0
   -7.7500  -45.3930    8.6980 H   0  0  0  0  0  0  0  0  0  0  0  0
   -4.5650  -43.7860    6.2270 H   0  0  0  0  0  0  0  0  0  0  0  0
   -6.1560  -43.5000    4.3660 H   0  0  0  0  0  0  0  0  0  0  0  0
  1  2  2  0  0  0  0
  2  3  1  0  0  0  0
  2  4  1  0  0  0  0
  4 11  2  0  0  0  0
  4 34  1  0  0  0  0
  5  6  2  0  0  0  0
  5 10  1  0  0  0  0
  5 34  1  0  0  0  0
  6  7  1  0  0  0  0
  6 22  1  0  0  0  0
  7  8  2  0  0  0  0
  7 23  1  0  0  0  0
  8  9  1  0  0  0  0
  8 24  1  0  0  0  0
  9 10  2  0  0  0  0
  9 25  1  0  0  0  0
 10 11  1  0  0  0  0
 11 12  1  0  0  0  0
 12 26  1  0  0  0  0
 12 27  1  0  0  0  0
 12 13  1  0  0  0  0
 13 14  1  0  0  0  0
 13 28  1  0  0  0  0
 13 29  1  0  0  0  0
 14 15  1  0  0  0  0
 14 30  1  0  0  0  0
 14 31  1  0  0  0  0
 15 16  1  0  0  0  0
 16 17  2  0  0  0  0
 16 21  1  0  0  0  0
 17 18  1  0  0  0  0
 17 32  1  0  0  0  0
 18 19  2  0  0  0  0
 18 38  1  0  0  0  0
 19 20  1  0  0  0  0
 19 37  1  0  0  0  0
 20 21  2  0  0  0  0
 20 36  1  0  0  0  0
 21 33  1  0  0  0  0
 34 35  1  0  0  0  0
 38 42  1  0  0  0  0
 39 40  2  0  0  0  0
 39 44  1  0  0  0  0
 39 45  1  0  0  0  0
 40 41  1  0  0  0  0
 40 46  1  0  0  0  0
 41 42  2  0  0  0  0
 41 47  1  0  0  0  0
 42 43  1  0  0  0  0
 43 44  2  0  0  0  0
 43 48  1  0  0  0  0
 44 49  1  0  0  0  0
M  CHG  1   3  -1
M  END
$$$$
