18630-1
 OpenBabel02232411163D
Structure written by MMmdl.
 41 42  0  0  0  0  0  0  0  0999 V2000
   23.7910   12.6960   30.3590 C   0  0  0  0  0  0  0  0  0  0  0  0
   23.3760   11.2400   30.4500 C   0  0  0  0  0  0  0  0  0  0  0  0
   22.1420   11.2980   31.2760 O   0  0  0  0  0  0  0  0  0  0  0  0
   21.5230   10.1450   31.6010 C   0  0  0  0  0  0  0  0  0  0  0  0
   22.0110    8.9680   31.1430 N   0  0  0  0  0  0  0  0  0  0  0  0
   21.2960    7.8170   31.4490 C   0  0  0  0  0  0  0  0  0  0  0  0
   20.1470    7.8320   32.2330 C   0  0  0  0  0  0  0  0  0  0  0  0
   19.6470    9.0710   32.7160 C   0  0  0  0  0  0  0  0  0  0  0  0
   18.5010    9.0980   33.4700 N   0  0  0  0  0  0  0  0  0  0  0  0
   20.3400   10.2800   32.3880 C   0  0  0  0  0  0  0  0  0  0  0  0
   19.9050   11.5710   32.7540 C   0  0  0  0  0  0  0  0  0  0  0  0
   19.5930   12.6590   33.0090 N   0  0  0  0  0  0  0  0  0  0  0  0
   21.8700    6.6710   30.8510 N   0  0  0  0  0  0  0  0  0  0  0  0
   21.3280    5.3600   30.8120 C   0  0  0  0  0  0  0  0  0  0  0  0
   20.2960    5.0650   31.3750 O   0  0  0  0  0  0  0  0  0  0  0  0
   22.1390    4.4020   29.9520 C   0  0  0  0  0  0  0  0  0  0  0  0
   23.4180    3.9820   30.6260 C   0  0  0  0  0  0  0  0  0  0  0  0
   23.4500    2.8390   31.4400 C   0  0  0  0  0  0  0  0  0  0  0  0
   24.6300    2.4640   32.0820 C   0  0  0  0  0  0  0  0  0  0  0  0
   25.8070    3.2140   31.9140 C   0  0  0  0  0  0  0  0  0  0  0  0
   27.0660    2.7990   32.6020 C   0  0  0  0  0  0  0  0  0  0  0  0
   25.7780    4.3420   31.0790 C   0  0  0  0  0  0  0  0  0  0  0  0
   24.5960    4.7200   30.4380 C   0  0  0  0  0  0  0  0  0  0  0  0
   24.0450   13.1100   31.3600 H   0  0  0  0  0  0  0  0  0  0  0  0
   22.9800   13.3150   29.9080 H   0  0  0  0  0  0  0  0  0  0  0  0
   24.6930   12.7710   29.7000 H   0  0  0  0  0  0  0  0  0  0  0  0
   23.0970   10.8130   29.4600 H   0  0  0  0  0  0  0  0  0  0  0  0
   24.1230   10.6120   30.9830 H   0  0  0  0  0  0  0  0  0  0  0  0
   19.6090    6.9100   32.4650 H   0  0  0  0  0  0  0  0  0  0  0  0
   18.0090    8.2220   33.7310 H   0  0  0  0  0  0  0  0  0  0  0  0
   18.0930    9.9780   33.7840 H   0  0  0  0  0  0  0  0  0  0  0  0
   22.7640    6.8440   30.3470 H   0  0  0  0  0  0  0  0  0  0  0  0
   21.5100    3.4990   29.7390 H   0  0  0  0  0  0  0  0  0  0  0  0
   22.3720    4.8950   28.9710 H   0  0  0  0  0  0  0  0  0  0  0  0
   22.5560    2.2260   31.5740 H   0  0  0  0  0  0  0  0  0  0  0  0
   24.6410    1.5730   32.7180 H   0  0  0  0  0  0  0  0  0  0  0  0
   27.4180    1.8150   32.2030 H   0  0  0  0  0  0  0  0  0  0  0  0
   26.8980    2.6860   33.7020 H   0  0  0  0  0  0  0  0  0  0  0  0
   27.8870    3.5420   32.4540 H   0  0  0  0  0  0  0  0  0  0  0  0
   26.6850    4.9320   30.9210 H   0  0  0  0  0  0  0  0  0  0  0  0
   24.6140    5.5940   29.7820 H   0  0  0  0  0  0  0  0  0  0  0  0
  1  2  1  0  0  0  0
  1 24  1  0  0  0  0
  1 25  1  0  0  0  0
  1 26  1  0  0  0  0
  2  3  1  0  0  0  0
  2 27  1  0  0  0  0
  2 28  1  0  0  0  0
  3  4  1  0  0  0  0
  4 10  2  0  0  0  0
  4  5  1  0  0  0  0
  5  6  2  0  0  0  0
  6  7  1  0  0  0  0
  6 13  1  0  0  0  0
  7  8  2  0  0  0  0
  7 29  1  0  0  0  0
  8  9  1  0  0  0  0
  8 10  1  0  0  0  0
  9 30  1  0  0  0  0
  9 31  1  0  0  0  0
 10 11  1  0  0  0  0
 11 12  3  0  0  0  0
 13 14  1  0  0  0  0
 13 32  1  0  0  0  0
 14 15  2  0  0  0  0
 14 16  1  0  0  0  0
 16 17  1  0  0  0  0
 16 33  1  0  0  0  0
 16 34  1  0  0  0  0
 17 23  2  0  0  0  0
 17 18  1  0  0  0  0
 18 19  2  0  0  0  0
 18 35  1  0  0  0  0
 19 20  1  0  0  0  0
 19 36  1  0  0  0  0
 20 21  1  0  0  0  0
 20 22  2  0  0  0  0
 21 37  1  0  0  0  0
 21 38  1  0  0  0  0
 21 39  1  0  0  0  0
 22 23  1  0  0  0  0
 22 40  1  0  0  0  0
 23 41  1  0  0  0  0
M  END
$$$$
