CAT-13i
                    3D
 Schrodinger Suite 2022-3.
 46 49  0  0  1  0  0  0  0  0999 V2000
   11.8300   -2.4910    1.2740 C   0  0  0  0  0  0  0  0  0  0  0  0
   13.1280   -2.8020    0.6430 N   0  0  0  0  0  0  0  0  0  0  0  0
   14.3160   -2.7460    1.3750 C   0  0  0  0  0  0  0  0  0  0  0  0
   14.4160   -2.6870    2.7360 N   0  0  0  0  0  0  0  0  0  0  0  0
   15.4050   -2.8310    0.5170 N   0  3  0  0  0  0  0  0  0  0  0  0
   14.9670   -3.1280   -0.8990 C   0  0  2  0  0  0  0  0  0  0  0  0
   15.3550   -4.5620   -1.2960 C   0  0  0  0  0  0  0  0  0  0  0  0
   14.6220   -5.6200   -0.4960 C   0  0  0  0  0  0  0  0  0  0  0  0
   13.3640   -6.2850   -1.0460 C   0  0  0  0  0  0  0  0  0  0  0  0
   14.6540   -7.0700   -0.9700 C   0  0  0  0  0  0  0  0  0  0  0  0
   15.4710   -2.0040   -1.7920 C   0  0  0  0  0  0  0  0  0  0  0  0
   16.2430   -2.2390   -2.9340 C   0  0  0  0  0  0  0  0  0  0  0  0
   16.6450   -1.1620   -3.7350 C   0  0  0  0  0  0  0  0  0  0  0  0
   16.3020    0.1470   -3.3970 C   0  0  0  0  0  0  0  0  0  0  0  0
   15.5540    0.3970   -2.2320 C   0  0  0  0  0  0  0  0  0  0  0  0
   15.2300    1.7800   -1.8120 C   0  0  0  0  0  0  0  0  0  0  0  0
   14.6420    2.6920   -2.7010 C   0  0  0  0  0  0  0  0  0  0  0  0
   14.3460    3.9930   -2.2810 C   0  0  0  0  0  0  0  0  0  0  0  0
   14.6110    4.3960   -0.9690 C   0  0  0  0  0  0  0  0  0  0  0  0
   15.1770    3.4700   -0.0900 C   0  0  0  0  0  0  0  0  0  0  0  0
   15.4380    3.9050    1.5570 Cl  0  0  0  0  0  0  0  0  0  0  0  0
   15.5070    2.1760   -0.4930 C   0  0  0  0  0  0  0  0  0  0  0  0
   15.1300   -0.6840   -1.4490 C   0  0  0  0  0  0  0  0  0  0  0  0
   13.4090   -3.0120   -0.7900 C   0  0  0  0  0  0  0  0  0  0  0  0
   12.5450   -3.0490   -1.6060 O   0  0  0  0  0  0  0  0  0  0  0  0
   11.6620   -3.1690    2.1550 H   0  0  0  0  0  0  0  0  0  0  0  0
   11.8490   -1.4250    1.6250 H   0  0  0  0  0  0  0  0  0  0  0  0
   11.0020   -2.6370    0.5330 H   0  0  0  0  0  0  0  0  0  0  0  0
   13.6800   -2.2080    3.3120 H   0  0  0  0  0  0  0  0  0  0  0  0
   16.3490   -3.1160    0.8820 H   0  0  0  0  0  0  0  0  0  0  0  0
   16.4600   -4.6900   -1.1270 H   0  0  0  0  0  0  0  0  0  0  0  0
   15.1500   -4.7030   -2.3900 H   0  0  0  0  0  0  0  0  0  0  0  0
   14.6760   -5.4440    0.5880 H   0  0  0  0  0  0  0  0  0  0  0  0
   12.5550   -6.5190   -0.3400 H   0  0  0  0  0  0  0  0  0  0  0  0
   12.9910   -5.9820   -2.0330 H   0  0  0  0  0  0  0  0  0  0  0  0
   15.1870   -7.3090   -1.9010 H   0  0  0  0  0  0  0  0  0  0  0  0
   14.7580   -7.8590   -0.2120 H   0  0  0  0  0  0  0  0  0  0  0  0
   16.5460   -3.2480   -3.2130 H   0  0  0  0  0  0  0  0  0  0  0  0
   17.2450   -1.3560   -4.6300 H   0  0  0  0  0  0  0  0  0  0  0  0
   16.6230    0.9760   -4.0360 H   0  0  0  0  0  0  0  0  0  0  0  0
   14.4010    2.3780   -3.7210 H   0  0  0  0  0  0  0  0  0  0  0  0
   13.8900    4.6970   -2.9880 H   0  0  0  0  0  0  0  0  0  0  0  0
   14.3640    5.4080   -0.6380 H   0  0  0  0  0  0  0  0  0  0  0  0
   15.9590    1.4660    0.1990 H   0  0  0  0  0  0  0  0  0  0  0  0
   14.5350   -0.5000   -0.5560 H   0  0  0  0  0  0  0  0  0  0  0  0
   15.3810   -2.5800    3.1530 H   0  0  0  0  0  0  0  0  0  0  0  0
  1  2  1  0  0  0  0
  1 26  1  0  0  0  0
  1 27  1  0  0  0  0
  1 28  1  0  0  0  0
  2  3  1  0  0  0  0
  2 24  1  0  0  0  0
  3  4  1  0  0  0  0
  3  5  2  0  0  0  0
  4 29  1  0  0  0  0
  4 46  1  0  0  0  0
  5  6  1  0  0  0  0
  5 30  1  0  0  0  0
  6  7  1  0  0  0  0
  6 11  1  0  0  0  0
  6 24  1  0  0  0  0
  7  8  1  0  0  0  0
  7 31  1  0  0  0  0
  7 32  1  0  0  0  0
  8  9  1  0  0  0  0
  8 10  1  0  0  0  0
  8 33  1  0  0  0  0
  9 10  1  0  0  0  0
  9 34  1  0  0  0  0
  9 35  1  0  0  0  0
 10 36  1  0  0  0  0
 10 37  1  0  0  0  0
 11 12  2  0  0  0  0
 11 23  1  0  0  0  0
 12 13  1  0  0  0  0
 12 38  1  0  0  0  0
 13 14  2  0  0  0  0
 13 39  1  0  0  0  0
 14 15  1  0  0  0  0
 14 40  1  0  0  0  0
 15 16  1  0  0  0  0
 15 23  2  0  0  0  0
 16 17  2  0  0  0  0
 16 22  1  0  0  0  0
 17 18  1  0  0  0  0
 17 41  1  0  0  0  0
 18 19  2  0  0  0  0
 18 42  1  0  0  0  0
 19 20  1  0  0  0  0
 19 43  1  0  0  0  0
 20 21  1  0  0  0  0
 20 22  2  0  0  0  0
 22 44  1  0  0  0  0
 23 45  1  0  0  0  0
 24 25  2  0  0  0  0
M  CHG  1   5   1
M  END
$$$$
