26.pdb
 OpenBabel02232411163D

 43 46  0  0  0  0  0  0  0  0999 V2000
    3.6030  -50.0280    5.9800 O   0  5  0  0  0  0  0  0  0  0  0  0
    2.9330  -49.1130    6.4810 C   0  0  0  0  0  0  0  0  0  0  0  0
    3.3260  -48.1130    7.0910 O   0  0  0  0  0  0  0  0  0  0  0  0
    1.3980  -49.3080    6.3430 C   0  0  0  0  0  0  0  0  0  0  0  0
    1.0340  -50.6280    6.6900 O   0  0  0  0  0  0  0  0  0  0  0  0
   -0.3510  -50.7040    6.5220 C   0  0  0  0  0  0  0  0  0  0  0  0
   -1.1560  -51.8110    6.7710 C   0  0  0  0  0  0  0  0  0  0  0  0
   -0.7710  -52.7640    7.1340 H   0  0  0  0  0  0  0  0  0  0  0  0
   -2.5230  -51.6410    6.5360 C   0  0  0  0  0  0  0  0  0  0  0  0
   -3.2090  -52.4700    6.7210 H   0  0  0  0  0  0  0  0  0  0  0  0
   -3.0420  -50.4190    6.0690 C   0  0  0  0  0  0  0  0  0  0  0  0
   -4.1170  -50.3310    5.8970 H   0  0  0  0  0  0  0  0  0  0  0  0
   -2.2190  -49.3170    5.8240 C   0  0  0  0  0  0  0  0  0  0  0  0
   -2.6510  -48.3820    5.4680 H   0  0  0  0  0  0  0  0  0  0  0  0
   -0.8480  -49.4480    6.0560 C   0  0  0  0  0  0  0  0  0  0  0  0
    0.3100  -48.5690    5.9590 C   0  0  0  0  0  0  0  0  0  0  0  0
    0.2280  -47.1540    5.5130 C   0  0  0  0  0  0  0  0  0  0  0  0
    1.1010  -46.9020    4.8620 H   0  0  0  0  0  0  0  0  0  0  0  0
   -0.7120  -47.0260    4.9140 H   0  0  0  0  0  0  0  0  0  0  0  0
    0.2010  -46.1500    6.6780 C   0  0  0  0  0  0  0  0  0  0  0  0
    0.1720  -45.1140    6.2640 H   0  0  0  0  0  0  0  0  0  0  0  0
    1.1330  -46.2760    7.2850 H   0  0  0  0  0  0  0  0  0  0  0  0
   -0.9810  -46.3170    7.6260 C   0  0  0  0  0  0  0  0  0  0  0  0
   -0.8580  -45.7000    8.5430 H   0  0  0  0  0  0  0  0  0  0  0  0
   -1.2180  -47.3820    7.8280 H   0  0  0  0  0  0  0  0  0  0  0  0
   -2.1450  -45.7450    6.9200 O   0  0  0  0  0  0  0  0  0  0  0  0
   -3.3440  -45.7610    7.5710 C   0  0  0  0  0  0  0  0  0  0  0  0
   -4.3680  -45.0170    6.8720 C   0  0  0  0  0  0  0  0  0  0  0  0
   -5.6580  -44.9330    7.4580 C   0  0  0  0  0  0  0  0  0  0  0  0
   -5.9070  -45.5740    8.7120 C   0  0  0  0  0  0  0  0  0  0  0  0
   -6.8980  -45.4930    9.1570 H   0  0  0  0  0  0  0  0  0  0  0  0
   -4.9180  -46.3050    9.3220 C   0  0  0  0  0  0  0  0  0  0  0  0
   -5.1250  -46.8320   10.2570 H   0  0  0  0  0  0  0  0  0  0  0  0
   -3.6170  -46.4050    8.7640 C   0  0  0  0  0  0  0  0  0  0  0  0
   -2.8850  -47.0000    9.2990 H   0  0  0  0  0  0  0  0  0  0  0  0
   -6.6910  -44.2480    6.7460 C   0  0  0  0  0  0  0  0  0  0  0  0
   -7.6890  -44.2020    7.1820 H   0  0  0  0  0  0  0  0  0  0  0  0
   -6.4350  -43.6750    5.5230 C   0  0  0  0  0  0  0  0  0  0  0  0
   -7.2230  -43.1660    4.9740 H   0  0  0  0  0  0  0  0  0  0  0  0
   -5.1380  -43.7480    4.9470 C   0  0  0  0  0  0  0  0  0  0  0  0
   -4.9580  -43.2770    3.9830 H   0  0  0  0  0  0  0  0  0  0  0  0
   -4.1320  -44.4160    5.6020 C   0  0  0  0  0  0  0  0  0  0  0  0
   -3.1450  -44.5210    5.1480 H   0  0  0  0  0  0  0  0  0  0  0  0
  1  2  1  0  0  0  0
  2  3  2  0  0  0  0
  4  2  1  0  0  0  0
  4  5  1  0  0  0  0
  6  7  1  0  0  0  0
  6  5  1  0  0  0  0
  7  8  1  0  0  0  0
  9 10  1  0  0  0  0
  9  7  2  0  0  0  0
 11  9  1  0  0  0  0
 12 11  1  0  0  0  0
 13 11  2  0  0  0  0
 13 15  1  0  0  0  0
 14 13  1  0  0  0  0
 15  6  2  0  0  0  0
 16 15  1  0  0  0  0
 16  4  2  0  0  0  0
 17 16  1  0  0  0  0
 17 20  1  0  0  0  0
 18 17  1  0  0  0  0
 19 17  1  0  0  0  0
 20 22  1  0  0  0  0
 20 23  1  0  0  0  0
 21 20  1  0  0  0  0
 23 25  1  0  0  0  0
 23 24  1  0  0  0  0
 26 23  1  0  0  0  0
 26 27  1  0  0  0  0
 27 34  1  0  0  0  0
 28 27  2  0  0  0  0
 28 29  1  0  0  0  0
 29 30  2  0  0  0  0
 30 32  1  0  0  0  0
 30 31  1  0  0  0  0
 32 33  1  0  0  0  0
 34 35  1  0  0  0  0
 34 32  2  0  0  0  0
 36 29  1  0  0  0  0
 36 37  1  0  0  0  0
 38 36  2  0  0  0  0
 39 38  1  0  0  0  0
 40 42  2  0  0  0  0
 40 38  1  0  0  0  0
 41 40  1  0  0  0  0
 42 28  1  0  0  0  0
 43 42  1  0  0  0  0
M  CHG  1   1  -1
M  END
$$$$
