28
                    3D
 Schrodinger Suite 2022-3.
 41 43  0  0  1  0  0  0  0  0999 V2000
    3.1290  -48.0400    7.1490 O   0  0  0  0  0  0  0  0  0  0  0  0
    2.7190  -48.9600    6.4300 C   0  0  0  0  0  0  0  0  0  0  0  0
    3.4020  -49.6890    5.6850 O   0  5  0  0  0  0  0  0  0  0  0  0
    1.2180  -49.3210    6.4540 C   0  0  0  0  0  0  0  0  0  0  0  0
   -0.5290  -50.7900    6.6670 C   0  0  0  0  0  0  0  0  0  0  0  0
   -1.3570  -51.9040    6.8850 C   0  0  0  0  0  0  0  0  0  0  0  0
   -2.7120  -51.7540    6.6250 C   0  0  0  0  0  0  0  0  0  0  0  0
   -3.2390  -50.5260    6.1620 C   0  0  0  0  0  0  0  0  0  0  0  0
   -2.4260  -49.4190    5.9540 C   0  0  0  0  0  0  0  0  0  0  0  0
   -1.0490  -49.5270    6.2050 C   0  0  0  0  0  0  0  0  0  0  0  0
    0.0730  -48.6170    6.0970 C   0  0  0  0  0  0  0  0  0  0  0  0
   -0.0660  -47.2030    5.6570 C   0  0  0  0  0  0  0  0  0  0  0  0
   -0.1790  -46.2020    6.8210 C   0  0  0  0  0  0  0  0  0  0  0  0
   -1.4290  -46.3560    7.6850 C   0  0  0  0  0  0  0  0  0  0  0  0
   -2.4910  -45.6280    6.9620 O   0  0  0  0  0  0  0  0  0  0  0  0
   -3.7220  -45.5370    7.5570 C   0  0  0  0  0  0  0  0  0  0  0  0
   -4.6550  -44.7230    6.8480 C   0  0  0  0  0  0  0  0  0  0  0  0
   -5.9330  -44.5700    7.3810 C   0  0  0  0  0  0  0  0  0  0  0  0
   -6.2960  -45.1920    8.5860 C   0  0  0  0  0  0  0  0  0  0  0  0
   -5.3780  -45.9950    9.2560 C   0  0  0  0  0  0  0  0  0  0  0  0
   -4.0850  -46.1770    8.7490 C   0  0  0  0  0  0  0  0  0  0  0  0
   -0.9580  -52.8530    7.2440 H   0  0  0  0  0  0  0  0  0  0  0  0
   -3.3910  -52.5940    6.7790 H   0  0  0  0  0  0  0  0  0  0  0  0
   -4.3090  -50.4540    5.9660 H   0  0  0  0  0  0  0  0  0  0  0  0
   -2.8600  -48.4840    5.6010 H   0  0  0  0  0  0  0  0  0  0  0  0
   -0.9880  -47.1120    5.0250 H   0  0  0  0  0  0  0  0  0  0  0  0
    0.8140  -46.9050    5.0350 H   0  0  0  0  0  0  0  0  0  0  0  0
   -0.1820  -45.1670    6.4030 H   0  0  0  0  0  0  0  0  0  0  0  0
    0.7070  -46.3230    7.4910 H   0  0  0  0  0  0  0  0  0  0  0  0
   -1.3090  -45.8370    8.6600 H   0  0  0  0  0  0  0  0  0  0  0  0
   -1.7630  -47.4100    7.7820 H   0  0  0  0  0  0  0  0  0  0  0  0
   -3.4020  -46.8240    9.2930 H   0  0  0  0  0  0  0  0  0  0  0  0
    0.8570  -50.6340    6.8240 N   0  0  0  0  0  0  0  0  0  0  0  0
    1.4740  -51.3860    7.1080 H   0  0  0  0  0  0  0  0  0  0  0  0
   -5.6730  -46.4980   10.1780 H   0  0  0  0  0  0  0  0  0  0  0  0
   -7.3010  -45.0560    8.9790 H   0  0  0  0  0  0  0  0  0  0  0  0
   -6.6750  -43.9680    6.8530 H   0  0  0  0  0  0  0  0  0  0  0  0
   -4.2840  -44.0830    5.5500 C   0  0  0  0  0  0  0  0  0  0  0  0
   -5.1450  -44.0930    4.8420 H   0  0  0  0  0  0  0  0  0  0  0  0
   -3.9790  -43.0240    5.7170 H   0  0  0  0  0  0  0  0  0  0  0  0
   -3.4340  -44.6310    5.0770 H   0  0  0  0  0  0  0  0  0  0  0  0
  1  2  2  0  0  0  0
  2  3  1  0  0  0  0
  2  4  1  0  0  0  0
  4 11  2  0  0  0  0
  4 33  1  0  0  0  0
  5  6  1  0  0  0  0
  5 10  2  0  0  0  0
  5 33  1  0  0  0  0
  6  7  2  0  0  0  0
  6 22  1  0  0  0  0
  7  8  1  0  0  0  0
  7 23  1  0  0  0  0
  8  9  2  0  0  0  0
  8 24  1  0  0  0  0
  9 10  1  0  0  0  0
  9 25  1  0  0  0  0
 10 11  1  0  0  0  0
 11 12  1  0  0  0  0
 12 26  1  0  0  0  0
 12 27  1  0  0  0  0
 12 13  1  0  0  0  0
 13 14  1  0  0  0  0
 13 28  1  0  0  0  0
 13 29  1  0  0  0  0
 14 15  1  0  0  0  0
 14 30  1  0  0  0  0
 14 31  1  0  0  0  0
 15 16  1  0  0  0  0
 16 17  1  0  0  0  0
 16 21  2  0  0  0  0
 17 18  2  0  0  0  0
 17 38  1  0  0  0  0
 18 19  1  0  0  0  0
 18 37  1  0  0  0  0
 19 20  2  0  0  0  0
 19 36  1  0  0  0  0
 20 21  1  0  0  0  0
 20 35  1  0  0  0  0
 21 32  1  0  0  0  0
 33 34  1  0  0  0  0
 38 39  1  0  0  0  0
 38 40  1  0  0  0  0
 38 41  1  0  0  0  0
M  CHG  1   3  -1
M  END
$$$$
