CAT-17c
 OpenBabel02232411143D
Structure written by MMmdl.
 44 47  0  0  1  0  0  0  0  0999 V2000
   11.8730   -2.1590    0.9340 C   0  0  0  0  0  0  0  0  0  0  0  0
   13.2840   -2.1030    0.4970 N   0  0  0  0  0  0  0  0  0  0  0  0
   14.3620   -2.0520    1.3680 C   0  0  0  0  0  0  0  0  0  0  0  0
   14.3500   -2.2770    2.7090 N   0  0  0  0  0  0  0  0  0  0  0  0
   15.5540   -1.8050    0.6550 N   0  3  0  0  0  0  0  0  0  0  0  0
   15.3270   -2.1400   -0.8050 C   0  0  1  0  0  0  0  0  0  0  0  0
   15.8650   -1.0710   -1.7320 C   0  0  0  0  0  0  0  0  0  0  0  0
   16.7920   -1.3810   -2.7380 C   0  0  0  0  0  0  0  0  0  0  0  0
   17.1230   -0.4170   -3.6930 C   0  0  0  0  0  0  0  0  0  0  0  0
   16.5940    0.8730   -3.6140 C   0  0  0  0  0  0  0  0  0  0  0  0
   15.7580    1.2220   -2.5410 C   0  0  0  0  0  0  0  0  0  0  0  0
   15.2980    2.6100   -2.3270 C   0  0  0  0  0  0  0  0  0  0  0  0
   14.7640    3.3900   -3.3630 C   0  0  0  0  0  0  0  0  0  0  0  0
   14.2800    4.6720   -3.0900 C   0  0  0  0  0  0  0  0  0  0  0  0
   14.2990    5.1780   -1.7870 C   0  0  0  0  0  0  0  0  0  0  0  0
   14.8500    4.4050   -0.7520 C   0  0  0  0  0  0  0  0  0  0  0  0
   14.8600    4.8630    0.6070 C   0  0  0  0  0  0  0  0  0  0  0  0
   14.8720    5.2130    1.7090 N   0  0  0  0  0  0  0  0  0  0  0  0
   15.3780    3.1360   -1.0280 C   0  0  0  0  0  0  0  0  0  0  0  0
   15.3620    0.2310   -1.6290 C   0  0  0  0  0  0  0  0  0  0  0  0
   15.9230   -3.5130   -1.0180 C   0  0  0  0  0  0  0  0  0  0  0  0
   15.1070   -4.7980   -0.9600 C   0  0  0  0  0  0  0  0  0  0  0  0
   15.6610   -4.3060   -2.2790 C   0  0  0  0  0  0  0  0  0  0  0  0
   13.7660   -2.1540   -0.9040 C   0  0  0  0  0  0  0  0  0  0  0  0
   13.0150   -2.1780   -1.8250 O   0  0  0  0  0  0  0  0  0  0  0  0
   11.7960   -2.5640    1.9790 H   0  0  0  0  0  0  0  0  0  0  0  0
   11.4280   -1.1280    0.9000 H   0  0  0  0  0  0  0  0  0  0  0  0
   11.3020   -2.8420    0.2480 H   0  0  0  0  0  0  0  0  0  0  0  0
   13.5500   -1.9840    3.3180 H   0  0  0  0  0  0  0  0  0  0  0  0
   16.4250   -2.2330    1.0810 H   0  0  0  0  0  0  0  0  0  0  0  0
   17.2560   -2.3650   -2.7920 H   0  0  0  0  0  0  0  0  0  0  0  0
   17.8060   -0.6880   -4.5070 H   0  0  0  0  0  0  0  0  0  0  0  0
   16.8310    1.6070   -4.3880 H   0  0  0  0  0  0  0  0  0  0  0  0
   14.7090    2.9920   -4.3810 H   0  0  0  0  0  0  0  0  0  0  0  0
   13.8620    5.2770   -3.9030 H   0  0  0  0  0  0  0  0  0  0  0  0
   13.8670    6.1600   -1.5840 H   0  0  0  0  0  0  0  0  0  0  0  0
   15.8410    2.5470   -0.2330 H   0  0  0  0  0  0  0  0  0  0  0  0
   14.6560    0.4700   -0.8360 H   0  0  0  0  0  0  0  0  0  0  0  0
   16.9470   -3.5660   -0.5980 H   0  0  0  0  0  0  0  0  0  0  0  0
   15.5740   -5.6640   -0.4720 H   0  0  0  0  0  0  0  0  0  0  0  0
   14.0270   -4.7610   -0.7820 H   0  0  0  0  0  0  0  0  0  0  0  0
   14.9660   -3.9300   -3.0390 H   0  0  0  0  0  0  0  0  0  0  0  0
   16.5440   -4.7990   -2.7010 H   0  0  0  0  0  0  0  0  0  0  0  0
   15.2790   -2.2210    3.2230 H   0  0  0  0  0  0  0  0  0  0  0  0
  1  2  1  0  0  0  0
  1 26  1  0  0  0  0
  1 27  1  0  0  0  0
  1 28  1  0  0  0  0
  2  3  1  0  0  0  0
  2 24  1  0  0  0  0
  3  4  1  0  0  0  0
  3  5  2  0  0  0  0
  4 29  1  0  0  0  0
  4 44  1  0  0  0  0
  5  6  1  0  0  0  0
  5 30  1  0  0  0  0
  6  7  1  6  0  0  0
  6 21  1  0  0  0  0
  6 24  1  0  0  0  0
  7  8  2  0  0  0  0
  7 20  1  0  0  0  0
  8  9  1  0  0  0  0
  8 31  1  0  0  0  0
  9 10  2  0  0  0  0
  9 32  1  0  0  0  0
 10 11  1  0  0  0  0
 10 33  1  0  0  0  0
 11 12  1  0  0  0  0
 11 20  2  0  0  0  0
 12 13  2  0  0  0  0
 12 19  1  0  0  0  0
 13 14  1  0  0  0  0
 13 34  1  0  0  0  0
 14 15  2  0  0  0  0
 14 35  1  0  0  0  0
 15 16  1  0  0  0  0
 15 36  1  0  0  0  0
 16 17  1  0  0  0  0
 16 19  2  0  0  0  0
 17 18  3  0  0  0  0
 19 37  1  0  0  0  0
 20 38  1  0  0  0  0
 21 22  1  0  0  0  0
 21 23  1  0  0  0  0
 21 39  1  0  0  0  0
 22 23  1  0  0  0  0
 22 40  1  0  0  0  0
 22 41  1  0  0  0  0
 23 42  1  0  0  0  0
 23 43  1  0  0  0  0
 24 25  2  0  0  0  0
M  CHG  1   5   1
M  END
$$$$
