18639-1
 OpenBabel02232411163D
Structure written by MMmdl.
 48 49  0  0  0  0  0  0  0  0999 V2000
   23.8150   12.6820   30.3360 C   0  0  0  0  0  0  0  0  0  0  0  0
   23.3680   11.2370   30.4430 C   0  0  0  0  0  0  0  0  0  0  0  0
   22.1200   11.3300   31.2440 O   0  0  0  0  0  0  0  0  0  0  0  0
   21.4960   10.1870   31.5940 C   0  0  0  0  0  0  0  0  0  0  0  0
   21.9890    9.0000   31.1650 N   0  0  0  0  0  0  0  0  0  0  0  0
   21.2680    7.8590   31.4840 C   0  0  0  0  0  0  0  0  0  0  0  0
   20.1080    7.8910   32.2510 C   0  0  0  0  0  0  0  0  0  0  0  0
   19.6090    9.1390   32.7130 C   0  0  0  0  0  0  0  0  0  0  0  0
   18.4650    9.1720   33.4680 N   0  0  0  0  0  0  0  0  0  0  0  0
   20.3070   10.3400   32.3690 C   0  0  0  0  0  0  0  0  0  0  0  0
   19.8740   11.6390   32.7090 C   0  0  0  0  0  0  0  0  0  0  0  0
   19.5670   12.7320   32.9460 N   0  0  0  0  0  0  0  0  0  0  0  0
   21.8480    6.6930   30.9300 N   0  0  0  0  0  0  0  0  0  0  0  0
   21.2510    5.4160   30.8580 C   0  0  0  0  0  0  0  0  0  0  0  0
   20.1640    5.1690   31.3350 O   0  0  0  0  0  0  0  0  0  0  0  0
   22.0640    4.4060   30.0550 C   0  0  0  0  0  0  0  0  0  0  0  0
   23.4200    4.1070   30.6210 C   0  0  0  0  0  0  0  0  0  0  0  0
   24.5340    4.9480   30.3100 C   0  0  0  0  0  0  0  0  0  0  0  0
   24.1970    6.0010   29.4690 O   0  0  0  0  0  0  0  0  0  0  0  0
   25.1810    7.0560   29.2830 C   0  0  0  0  0  0  0  0  0  0  0  0
   25.8070    4.6830   30.7900 C   0  0  0  0  0  0  0  0  0  0  0  0
   26.0130    3.5600   31.6190 C   0  0  0  0  0  0  0  0  0  0  0  0
   27.3590    3.2770   32.1250 N   0  3  0  0  0  0  0  0  0  0  0  0
   27.4760    2.4740   33.0380 O   0  5  0  0  0  0  0  0  0  0  0  0
   28.3110    3.8500   31.6080 O   0  0  0  0  0  0  0  0  0  0  0  0
   24.9240    2.7130   31.9330 C   0  0  0  0  0  0  0  0  0  0  0  0
   23.6360    2.9940   31.4180 C   0  0  0  0  0  0  0  0  0  0  0  0
   25.2490    1.6670   32.7420 O   0  0  0  0  0  0  0  0  0  0  0  0
   24.2350    0.6430   32.9670 C   0  0  0  0  0  0  0  0  0  0  0  0
   24.7440   12.7230   29.7130 H   0  0  0  0  0  0  0  0  0  0  0  0
   23.0360   13.3060   29.8370 H   0  0  0  0  0  0  0  0  0  0  0  0
   24.0350   13.1160   31.3370 H   0  0  0  0  0  0  0  0  0  0  0  0
   23.1010   10.7970   29.4560 H   0  0  0  0  0  0  0  0  0  0  0  0
   24.0940   10.6030   31.0010 H   0  0  0  0  0  0  0  0  0  0  0  0
   19.5620    6.9750   32.4860 H   0  0  0  0  0  0  0  0  0  0  0  0
   17.9610    8.2960   33.7110 H   0  0  0  0  0  0  0  0  0  0  0  0
   18.0500   10.0540   33.7670 H   0  0  0  0  0  0  0  0  0  0  0  0
   22.7690    6.8340   30.4450 H   0  0  0  0  0  0  0  0  0  0  0  0
   21.4710    3.4540   29.9860 H   0  0  0  0  0  0  0  0  0  0  0  0
   22.1900    4.8190   29.0140 H   0  0  0  0  0  0  0  0  0  0  0  0
   25.5150    7.4560   30.2640 H   0  0  0  0  0  0  0  0  0  0  0  0
   26.0220    6.6680   28.6710 H   0  0  0  0  0  0  0  0  0  0  0  0
   24.5830    7.8130   28.7240 H   0  0  0  0  0  0  0  0  0  0  0  0
   26.6600    5.3190   30.5280 H   0  0  0  0  0  0  0  0  0  0  0  0
   22.8050    2.3210   31.6480 H   0  0  0  0  0  0  0  0  0  0  0  0
   24.8050   -0.1010   33.5750 H   0  0  0  0  0  0  0  0  0  0  0  0
   23.3860    1.0650   33.5460 H   0  0  0  0  0  0  0  0  0  0  0  0
   23.9150    0.2040   31.9980 H   0  0  0  0  0  0  0  0  0  0  0  0
  1  2  1  0  0  0  0
  1 30  1  0  0  0  0
  1 31  1  0  0  0  0
  1 32  1  0  0  0  0
  2  3  1  0  0  0  0
  2 33  1  0  0  0  0
  2 34  1  0  0  0  0
  3  4  1  0  0  0  0
  4 10  2  0  0  0  0
  4  5  1  0  0  0  0
  5  6  2  0  0  0  0
  6  7  1  0  0  0  0
  6 13  1  0  0  0  0
  7  8  2  0  0  0  0
  7 35  1  0  0  0  0
  8  9  1  0  0  0  0
  8 10  1  0  0  0  0
  9 36  1  0  0  0  0
  9 37  1  0  0  0  0
 10 11  1  0  0  0  0
 11 12  3  0  0  0  0
 13 14  1  0  0  0  0
 13 38  1  0  0  0  0
 14 15  2  0  0  0  0
 14 16  1  0  0  0  0
 16 17  1  0  0  0  0
 16 39  1  0  0  0  0
 16 40  1  0  0  0  0
 17 27  2  0  0  0  0
 17 18  1  0  0  0  0
 18 19  1  0  0  0  0
 18 21  2  0  0  0  0
 19 20  1  0  0  0  0
 20 41  1  0  0  0  0
 20 42  1  0  0  0  0
 20 43  1  0  0  0  0
 21 22  1  0  0  0  0
 21 44  1  0  0  0  0
 22 23  1  0  0  0  0
 22 26  2  0  0  0  0
 23 24  1  0  0  0  0
 23 25  2  0  0  0  0
 26 27  1  0  0  0  0
 26 28  1  0  0  0  0
 27 45  1  0  0  0  0
 28 29  1  0  0  0  0
 29 46  1  0  0  0  0
 29 47  1  0  0  0  0
 29 48  1  0  0  0  0
M  CHG  2  23   1  24  -1
M  END
$$$$
