p38a_3fmk
 OpenBabel02232411163D
Structure written by MMmdl.
 46 49  0  0  1  0  0  0  0  0999 V2000
   35.7070   35.5400   16.8810 C   0  0  0  0  0  0  0  0  0  0  0  0
   36.3730   36.0290   15.7610 C   0  0  0  0  0  0  0  0  0  0  0  0
   33.9690   34.9780   23.7690 C   0  0  0  0  0  0  0  0  0  0  0  0
   38.2930   36.5440   17.2200 C   0  0  0  0  0  0  0  0  0  0  0  0
   34.7370   39.2920   21.5370 C   0  0  0  0  0  0  0  0  0  0  0  0
   33.7450   39.1240   26.2830 C   0  0  1  0  0  0  0  0  0  0  0  0
   32.5800   39.8030   27.0740 C   0  0  0  0  0  0  0  0  0  0  0  0
   34.1240   39.1280   23.7940 C   0  0  0  0  0  0  0  0  0  0  0  0
   34.5930   35.0080   21.3180 C   0  0  0  0  0  0  0  0  0  0  0  0
   35.1460   35.8400   20.2140 C   0  0  0  0  0  0  0  0  0  0  0  0
   35.1980   37.1920   20.2390 C   0  0  0  0  0  0  0  0  0  0  0  0
   36.2910   35.5890   18.1620 C   0  0  0  0  0  0  0  0  0  0  0  0
   37.5870   36.0820   18.3370 C   0  0  0  0  0  0  0  0  0  0  0  0
   34.7760   37.8760   21.4320 C   0  0  0  0  0  0  0  0  0  0  0  0
   34.4070   37.1310   22.5910 C   0  0  0  0  0  0  0  0  0  0  0  0
   33.7360   39.7920   24.9470 N   0  0  0  0  0  0  0  0  0  0  0  0
   37.6590   36.5400   15.9730 C   0  0  0  0  0  0  0  0  0  0  0  0
   38.2920   37.0840   14.9360 F   0  0  0  0  0  0  0  0  0  0  0  0
   34.4990   35.0050   16.7680 F   0  0  0  0  0  0  0  0  0  0  0  0
   35.5480   34.9890   19.1880 O   0  0  0  0  0  0  0  0  0  0  0  0
   34.3590   33.8210   21.2540 O   0  0  0  0  0  0  0  0  0  0  0  0
   34.3310   35.7310   22.5350 N   0  0  0  0  0  0  0  0  0  0  0  0
   34.1050   37.7500   23.7800 N   0  0  0  0  0  0  0  0  0  0  0  0
   34.4240   39.9280   22.6780 N   0  0  0  0  0  0  0  0  0  0  0  0
   35.0980   39.3150   26.9700 C   0  0  0  0  0  0  0  0  0  0  0  0
   32.1890   39.0040   28.2530 N   0  0  0  0  0  0  0  0  0  0  0  0
   32.6340   39.2650   29.5150 N   0  0  0  0  0  0  0  0  0  0  0  0
   32.0820   38.2790   30.2760 C   0  0  0  0  0  0  0  0  0  0  0  0
   31.3060   37.4300   29.4400 N   0  0  0  0  0  0  0  0  0  0  0  0
   31.3890   37.8880   28.2310 N   0  0  0  0  0  0  0  0  0  0  0  0
   35.9070   36.0400   14.7740 H   0  0  0  0  0  0  0  0  0  0  0  0
   34.7010   35.2200   24.5870 H   0  0  0  0  0  0  0  0  0  0  0  0
   32.9410   35.2760   24.1140 H   0  0  0  0  0  0  0  0  0  0  0  0
   33.9890   33.8750   23.5720 H   0  0  0  0  0  0  0  0  0  0  0  0
   39.3090   36.9310   17.3330 H   0  0  0  0  0  0  0  0  0  0  0  0
   34.9680   39.9180   20.6600 H   0  0  0  0  0  0  0  0  0  0  0  0
   33.5240   38.0270   26.1580 H   0  0  0  0  0  0  0  0  0  0  0  0
   32.9060   40.8290   27.4100 H   0  0  0  0  0  0  0  0  0  0  0  0
   31.6860   39.9050   26.3920 H   0  0  0  0  0  0  0  0  0  0  0  0
   35.5630   37.7950   19.4050 H   0  0  0  0  0  0  0  0  0  0  0  0
   38.0430   36.1420   19.3290 H   0  0  0  0  0  0  0  0  0  0  0  0
   33.8940   40.8210   24.9960 H   0  0  0  0  0  0  0  0  0  0  0  0
   35.8960   38.7920   26.3950 H   0  0  0  0  0  0  0  0  0  0  0  0
   35.3600   40.3980   27.0450 H   0  0  0  0  0  0  0  0  0  0  0  0
   35.0780   38.8930   28.0010 H   0  0  0  0  0  0  0  0  0  0  0  0
   32.2050   38.1470   31.3510 H   0  0  0  0  0  0  0  0  0  0  0  0
  1  2  2  0  0  0  0
  1 12  1  0  0  0  0
  1 19  1  0  0  0  0
  2 17  1  0  0  0  0
  2 31  1  0  0  0  0
  3 22  1  0  0  0  0
  3 32  1  0  0  0  0
  3 33  1  0  0  0  0
  3 34  1  0  0  0  0
  4 13  1  0  0  0  0
  4 17  2  0  0  0  0
  4 35  1  0  0  0  0
  5 14  2  0  0  0  0
  5 24  1  0  0  0  0
  5 36  1  0  0  0  0
  6  7  1  0  0  0  0
  6 16  1  0  0  0  0
  6 25  1  0  0  0  0
  6 37  1  6  0  0  0
  7 26  1  0  0  0  0
  7 38  1  0  0  0  0
  7 39  1  0  0  0  0
  8 16  1  0  0  0  0
  8 23  1  0  0  0  0
  8 24  2  0  0  0  0
  9 10  1  0  0  0  0
  9 21  2  0  0  0  0
  9 22  1  0  0  0  0
 10 11  2  0  0  0  0
 10 20  1  0  0  0  0
 11 14  1  0  0  0  0
 11 40  1  0  0  0  0
 12 13  2  0  0  0  0
 12 20  1  0  0  0  0
 13 41  1  0  0  0  0
 14 15  1  0  0  0  0
 15 22  1  0  0  0  0
 15 23  2  0  0  0  0
 16 42  1  0  0  0  0
 17 18  1  0  0  0  0
 25 43  1  0  0  0  0
 25 44  1  0  0  0  0
 25 45  1  0  0  0  0
 26 27  1  0  0  0  0
 26 30  1  0  0  0  0
 27 28  2  0  0  0  0
 28 29  1  0  0  0  0
 28 46  1  0  0  0  0
 29 30  2  0  0  0  0
M  END
$$$$
