p38a_2n
 OpenBabel02232411163D
Structure written by MMmdl.
 53 56  0  0  0  0  0  0  0  0999 V2000
   36.3120   35.9520   15.9520 C   0  0  0  0  0  0  0  0  0  0  0  0
   34.3480   35.0260   21.4370 C   0  0  0  0  0  0  0  0  0  0  0  0
   35.6370   35.5030   17.0830 C   0  0  0  0  0  0  0  0  0  0  0  0
   33.7510   39.1820   23.8500 C   0  0  0  0  0  0  0  0  0  0  0  0
   34.6310   37.8840   21.5780 C   0  0  0  0  0  0  0  0  0  0  0  0
   35.1470   37.1830   20.4330 C   0  0  0  0  0  0  0  0  0  0  0  0
   37.6090   36.4430   16.1520 C   0  0  0  0  0  0  0  0  0  0  0  0
   38.2410   36.4620   17.3980 C   0  0  0  0  0  0  0  0  0  0  0  0
   37.5300   36.0350   18.5250 C   0  0  0  0  0  0  0  0  0  0  0  0
   34.0420   37.1690   22.6620 C   0  0  0  0  0  0  0  0  0  0  0  0
   34.6970   39.2980   21.7010 C   0  0  0  0  0  0  0  0  0  0  0  0
   35.0370   35.8360   20.3930 C   0  0  0  0  0  0  0  0  0  0  0  0
   36.2270   35.5540   18.3630 C   0  0  0  0  0  0  0  0  0  0  0  0
   34.4170   34.9940   16.9810 F   0  0  0  0  0  0  0  0  0  0  0  0
   35.4870   34.9700   19.3990 O   0  0  0  0  0  0  0  0  0  0  0  0
   34.2820   39.9560   22.7910 N   0  0  0  0  0  0  0  0  0  0  0  0
   34.1510   33.8330   21.3740 O   0  0  0  0  0  0  0  0  0  0  0  0
   33.9080   35.7700   22.5910 N   0  0  0  0  0  0  0  0  0  0  0  0
   33.6090   37.8120   23.7970 N   0  0  0  0  0  0  0  0  0  0  0  0
   33.3330   39.8980   24.9470 N   0  0  0  0  0  0  0  0  0  0  0  0
   35.8490   35.9470   14.9610 H   0  0  0  0  0  0  0  0  0  0  0  0
   35.6220   37.7700   19.6430 H   0  0  0  0  0  0  0  0  0  0  0  0
   39.2650   36.8350   17.4990 H   0  0  0  0  0  0  0  0  0  0  0  0
   37.9890   36.0990   19.5140 H   0  0  0  0  0  0  0  0  0  0  0  0
   35.1030   39.9030   20.8730 H   0  0  0  0  0  0  0  0  0  0  0  0
   33.5420   40.9170   24.9760 H   0  0  0  0  0  0  0  0  0  0  0  0
   38.2550   36.9470   15.1030 F   0  0  0  0  0  0  0  0  0  0  0  0
   33.4070   38.0600   28.3340 C   0  0  0  0  0  0  0  0  0  0  0  0
   33.9450   38.5280   26.9760 C   0  0  0  0  0  0  0  0  0  0  0  0
   32.8630   39.3600   26.2580 C   0  0  0  0  0  0  0  0  0  0  0  0
   31.5610   38.5460   26.1330 C   0  0  0  0  0  0  0  0  0  0  0  0
   31.1240   38.0690   27.5240 C   0  0  0  0  0  0  0  0  0  0  0  0
   32.1680   37.3300   28.2000 O   0  0  0  0  0  0  0  0  0  0  0  0
   33.2460   38.9240   29.0190 H   0  0  0  0  0  0  0  0  0  0  0  0
   34.0800   37.2970   28.7910 H   0  0  0  0  0  0  0  0  0  0  0  0
   34.2210   37.6400   26.3560 H   0  0  0  0  0  0  0  0  0  0  0  0
   34.8620   39.1460   27.1330 H   0  0  0  0  0  0  0  0  0  0  0  0
   32.6530   40.2880   26.8720 H   0  0  0  0  0  0  0  0  0  0  0  0
   30.7590   39.1750   25.6810 H   0  0  0  0  0  0  0  0  0  0  0  0
   31.7280   37.6590   25.4740 H   0  0  0  0  0  0  0  0  0  0  0  0
   30.8180   38.9220   28.1680 H   0  0  0  0  0  0  0  0  0  0  0  0
   30.3150   37.3050   27.4480 H   0  0  0  0  0  0  0  0  0  0  0  0
   33.2100   35.0270   23.6950 C   0  0  0  0  0  0  0  0  0  0  0  0
   33.6370   33.9870   23.7360 H   0  0  0  0  0  0  0  0  0  0  0  0
   33.4250   35.5430   24.6730 H   0  0  0  0  0  0  0  0  0  0  0  0
   31.6940   34.9760   23.4570 C   0  0  0  0  0  0  0  0  0  0  0  0
   31.2920   36.0150   23.3880 H   0  0  0  0  0  0  0  0  0  0  0  0
   31.4700   34.4460   22.5000 H   0  0  0  0  0  0  0  0  0  0  0  0
   30.9720   34.2420   24.5990 C   0  0  0  0  0  0  0  0  0  0  0  0
   31.5930   33.4260   25.0370 H   0  0  0  0  0  0  0  0  0  0  0  0
   30.6350   34.9590   25.3840 H   0  0  0  0  0  0  0  0  0  0  0  0
   29.8280   33.5310   24.0940 O   0  0  0  0  0  0  0  0  0  0  0  0
   29.1290   34.2000   23.8070 H   0  0  0  0  0  0  0  0  0  0  0  0
  1  3  2  0  0  0  0
  1  7  1  0  0  0  0
  1 21  1  0  0  0  0
  2 12  1  0  0  0  0
  2 17  2  0  0  0  0
  2 18  1  0  0  0  0
  3 13  1  0  0  0  0
  3 14  1  0  0  0  0
  4 16  2  0  0  0  0
  4 19  1  0  0  0  0
  4 20  1  0  0  0  0
  5  6  1  0  0  0  0
  5 10  1  0  0  0  0
  5 11  2  0  0  0  0
  6 12  2  0  0  0  0
  6 22  1  0  0  0  0
  7  8  2  0  0  0  0
  7 27  1  0  0  0  0
  8  9  1  0  0  0  0
  8 23  1  0  0  0  0
  9 13  2  0  0  0  0
  9 24  1  0  0  0  0
 10 18  1  0  0  0  0
 10 19  2  0  0  0  0
 11 16  1  0  0  0  0
 11 25  1  0  0  0  0
 12 15  1  0  0  0  0
 13 15  1  0  0  0  0
 18 43  1  0  0  0  0
 20 26  1  0  0  0  0
 20 30  1  0  0  0  0
 28 29  1  0  0  0  0
 28 33  1  0  0  0  0
 28 34  1  0  0  0  0
 28 35  1  0  0  0  0
 29 30  1  0  0  0  0
 29 36  1  0  0  0  0
 29 37  1  0  0  0  0
 30 31  1  0  0  0  0
 30 38  1  0  0  0  0
 31 32  1  0  0  0  0
 31 39  1  0  0  0  0
 31 40  1  0  0  0  0
 32 33  1  0  0  0  0
 32 41  1  0  0  0  0
 32 42  1  0  0  0  0
 43 44  1  0  0  0  0
 43 45  1  0  0  0  0
 43 46  1  0  0  0  0
 46 47  1  0  0  0  0
 46 48  1  0  0  0  0
 46 49  1  0  0  0  0
 49 50  1  0  0  0  0
 49 51  1  0  0  0  0
 49 52  1  0  0  0  0
 52 53  1  0  0  0  0
M  END
$$$$
