18660-1
 OpenBabel02232411163D
Structure written by MMmdl.
 52 53  0  0  0  0  0  0  0  0999 V2000
   22.2880   13.9060   30.5500 C   0  0  0  0  0  0  0  0  0  0  0  0
   22.5370   13.2620   28.9570 S   0  0  0  0  0  0  0  0  0  0  0  0
   21.2480   13.3220   28.2510 O   0  0  0  0  0  0  0  0  0  0  0  0
   23.6070   14.0320   28.2990 O   0  0  0  0  0  0  0  0  0  0  0  0
   23.0230   11.5790   29.1550 C   0  0  0  0  0  0  0  0  0  0  0  0
   23.3890   11.1060   30.5470 C   0  0  0  0  0  0  0  0  0  0  0  0
   22.1850   11.1560   31.3970 O   0  0  0  0  0  0  0  0  0  0  0  0
   21.5170   10.0110   31.6990 C   0  0  0  0  0  0  0  0  0  0  0  0
   21.9310    8.8460   31.1640 N   0  0  0  0  0  0  0  0  0  0  0  0
   21.1900    7.7070   31.4580 C   0  0  0  0  0  0  0  0  0  0  0  0
   20.0500    7.7420   32.2550 C   0  0  0  0  0  0  0  0  0  0  0  0
   19.6200    8.9810   32.8020 C   0  0  0  0  0  0  0  0  0  0  0  0
   18.4680    9.0320   33.5420 N   0  0  0  0  0  0  0  0  0  0  0  0
   20.3840   10.1660   32.5470 C   0  0  0  0  0  0  0  0  0  0  0  0
   20.0690   11.4410   33.0620 C   0  0  0  0  0  0  0  0  0  0  0  0
   19.8400   12.5070   33.4580 N   0  0  0  0  0  0  0  0  0  0  0  0
   21.7350    6.5680   30.8390 N   0  0  0  0  0  0  0  0  0  0  0  0
   21.1780    5.2650   30.7920 C   0  0  0  0  0  0  0  0  0  0  0  0
   20.1220    4.9870   31.3160 O   0  0  0  0  0  0  0  0  0  0  0  0
   22.0110    4.2990   29.9640 C   0  0  0  0  0  0  0  0  0  0  0  0
   23.3590    4.0370   30.5710 C   0  0  0  0  0  0  0  0  0  0  0  0
   24.4550    4.9080   30.3010 C   0  0  0  0  0  0  0  0  0  0  0  0
   24.1240    5.9510   29.4380 O   0  0  0  0  0  0  0  0  0  0  0  0
   25.0640    7.0550   29.3410 C   0  0  0  0  0  0  0  0  0  0  0  0
   25.7150    4.6880   30.8450 C   0  0  0  0  0  0  0  0  0  0  0  0
   25.9210    3.5930   31.6980 C   0  0  0  0  0  0  0  0  0  0  0  0
   24.8530    2.7380   31.9700 C   0  0  0  0  0  0  0  0  0  0  0  0
   23.5730    2.9430   31.3980 C   0  0  0  0  0  0  0  0  0  0  0  0
   24.8860    1.6310   32.7910 O   0  0  0  0  0  0  0  0  0  0  0  0
   26.1410    1.3220   33.4500 C   0  0  0  0  0  0  0  0  0  0  0  0
   21.6440   13.2390   31.1890 H   0  0  0  0  0  0  0  0  0  0  0  0
   23.2410   14.0730   31.1180 H   0  0  0  0  0  0  0  0  0  0  0  0
   21.7700   14.9040   30.5170 H   0  0  0  0  0  0  0  0  0  0  0  0
   22.2320   10.8870   28.7410 H   0  0  0  0  0  0  0  0  0  0  0  0
   23.9260   11.3600   28.5010 H   0  0  0  0  0  0  0  0  0  0  0  0
   23.8190   10.0730   30.5230 H   0  0  0  0  0  0  0  0  0  0  0  0
   24.0710   11.7990   31.0930 H   0  0  0  0  0  0  0  0  0  0  0  0
   19.4710    6.8370   32.4530 H   0  0  0  0  0  0  0  0  0  0  0  0
   18.1220    9.9160   33.9170 H   0  0  0  0  0  0  0  0  0  0  0  0
   17.9640    8.1640   33.8080 H   0  0  0  0  0  0  0  0  0  0  0  0
   22.6430    6.7360   30.3320 H   0  0  0  0  0  0  0  0  0  0  0  0
   21.4480    3.3360   29.8570 H   0  0  0  0  0  0  0  0  0  0  0  0
   22.1520    4.7500   28.9420 H   0  0  0  0  0  0  0  0  0  0  0  0
   25.9620    6.7230   28.7770 H   0  0  0  0  0  0  0  0  0  0  0  0
   24.4740    7.8070   28.7680 H   0  0  0  0  0  0  0  0  0  0  0  0
   25.3250    7.4400   30.3500 H   0  0  0  0  0  0  0  0  0  0  0  0
   26.5590    5.3460   30.6260 H   0  0  0  0  0  0  0  0  0  0  0  0
   26.9160    3.4410   32.1210 H   0  0  0  0  0  0  0  0  0  0  0  0
   22.7760    2.2300   31.6210 H   0  0  0  0  0  0  0  0  0  0  0  0
   25.8720    0.4130   34.0390 H   0  0  0  0  0  0  0  0  0  0  0  0
   26.4420    2.1580   34.1170 H   0  0  0  0  0  0  0  0  0  0  0  0
   26.9250    1.0920   32.6960 H   0  0  0  0  0  0  0  0  0  0  0  0
  1  2  1  0  0  0  0
  1 31  1  0  0  0  0
  1 32  1  0  0  0  0
  1 33  1  0  0  0  0
  2  3  2  0  0  0  0
  2  4  2  0  0  0  0
  2  5  1  0  0  0  0
  5  6  1  0  0  0  0
  5 34  1  0  0  0  0
  5 35  1  0  0  0  0
  6  7  1  0  0  0  0
  6 36  1  0  0  0  0
  6 37  1  0  0  0  0
  7  8  1  0  0  0  0
  8 14  2  0  0  0  0
  8  9  1  0  0  0  0
  9 10  2  0  0  0  0
 10 11  1  0  0  0  0
 10 17  1  0  0  0  0
 11 12  2  0  0  0  0
 11 38  1  0  0  0  0
 12 13  1  0  0  0  0
 12 14  1  0  0  0  0
 13 39  1  0  0  0  0
 13 40  1  0  0  0  0
 14 15  1  0  0  0  0
 15 16  3  0  0  0  0
 17 18  1  0  0  0  0
 17 41  1  0  0  0  0
 18 19  2  0  0  0  0
 18 20  1  0  0  0  0
 20 21  1  0  0  0  0
 20 42  1  0  0  0  0
 20 43  1  0  0  0  0
 21 28  2  0  0  0  0
 21 22  1  0  0  0  0
 22 23  1  0  0  0  0
 22 25  2  0  0  0  0
 23 24  1  0  0  0  0
 24 44  1  0  0  0  0
 24 45  1  0  0  0  0
 24 46  1  0  0  0  0
 25 26  1  0  0  0  0
 25 47  1  0  0  0  0
 26 27  2  0  0  0  0
 26 48  1  0  0  0  0
 27 28  1  0  0  0  0
 27 29  1  0  0  0  0
 28 49  1  0  0  0  0
 29 30  1  0  0  0  0
 30 50  1  0  0  0  0
 30 51  1  0  0  0  0
 30 52  1  0  0  0  0
M  END
$$$$
