23486
 OpenBabel02232411173D
Structure written by MMmdl.
 60 63  0  0  0  0  0  0  0  0999 V2000
   42.4170   18.0060   12.6150 O   0  0  0  0  0  0  0  0  0  0  0  0
   41.2760   17.7170   12.9920 C   0  0  0  0  0  0  0  0  0  0  0  0
   40.2280   18.3480   12.7370 O   0  5  0  0  0  0  0  0  0  0  0  0
   41.0800   16.4440   13.8670 C   0  0  0  0  0  0  0  0  0  0  0  0
   42.4170   15.8550   13.8050 O   0  0  0  0  0  0  0  0  0  0  0  0
   42.6510   14.9130   14.7580 C   0  0  0  0  0  0  0  0  0  0  0  0
   42.0650   13.5880   14.6700 C   0  0  0  0  0  0  0  0  0  0  0  0
   41.0100   13.2670   13.3620 Cl  0  0  0  0  0  0  0  0  0  0  0  0
   42.4590   12.7130   15.6480 C   0  0  0  0  0  0  0  0  0  0  0  0
   42.0490   11.3570   15.9450 C   0  0  0  0  0  0  0  0  0  0  0  0
   42.7110   10.5660   16.9200 C   0  0  0  0  0  0  0  0  0  0  0  0
   42.2460    9.2920   17.2210 C   0  0  0  0  0  0  0  0  0  0  0  0
   41.1380    8.7290   16.5680 C   0  0  0  0  0  0  0  0  0  0  0  0
   40.4950    9.4870   15.5800 C   0  0  0  0  0  0  0  0  0  0  0  0
   39.4260    9.0010   14.7870 N   0  0  0  0  0  0  0  0  0  0  0  0
   38.5660    7.8720   15.1910 C   0  0  0  0  0  0  0  0  0  0  0  0
   37.0910    8.1160   14.7780 C   0  0  0  0  0  0  0  0  0  0  0  0
   36.8630    8.0280   13.2600 C   0  0  0  0  0  0  0  0  0  0  0  0
   37.4010    6.7790   12.6570 N   0  0  0  0  0  0  0  0  0  0  0  0
   36.3720    5.5190   12.1940 S   0  0  0  0  0  0  0  0  0  0  0  0
   36.9710    4.8980   11.0110 O   0  0  0  0  0  0  0  0  0  0  0  0
   35.0980    6.1790   11.8590 O   0  0  0  0  0  0  0  0  0  0  0  0
   36.2700    4.2900   13.4440 C   0  0  0  0  0  0  0  0  0  0  0  0
   35.1360    4.4070   14.4070 C   0  0  0  0  0  0  0  0  0  0  0  0
   33.8900    3.8250   14.1180 C   0  0  0  0  0  0  0  0  0  0  0  0
   32.8680    3.8480   15.0710 C   0  0  0  0  0  0  0  0  0  0  0  0
   33.0640    4.4700   16.3080 C   0  0  0  0  0  0  0  0  0  0  0  0
   34.3040    5.0450   16.6020 C   0  0  0  0  0  0  0  0  0  0  0  0
   35.3360    5.0060   15.6610 C   0  0  0  0  0  0  0  0  0  0  0  0
   38.8120    6.4990   13.0360 C   0  0  0  0  0  0  0  0  0  0  0  0
   39.0610    6.5500   14.5500 C   0  0  0  0  0  0  0  0  0  0  0  0
   40.9450   10.7970   15.2920 C   0  0  0  0  0  0  0  0  0  0  0  0
   43.6270   13.5490   16.6630 S   0  0  0  0  0  0  0  0  0  0  0  0
   43.5400   15.0630   15.7860 C   0  0  0  0  0  0  0  0  0  0  0  0
   44.3570   16.2830   16.2290 C   0  0  0  0  0  0  0  0  0  0  0  0
   44.9790   16.1410   17.3060 O   0  0  0  0  0  0  0  0  0  0  0  0
   44.3780   17.2780   15.5040 O   0  5  0  0  0  0  0  0  0  0  0  0
   40.3440   15.7460   13.4180 H   0  0  0  0  0  0  0  0  0  0  0  0
   40.7970   16.6850   14.9120 H   0  0  0  0  0  0  0  0  0  0  0  0
   43.5890   10.9350   17.4530 H   0  0  0  0  0  0  0  0  0  0  0  0
   42.7450    8.6910   17.9870 H   0  0  0  0  0  0  0  0  0  0  0  0
   40.8140    7.7230   16.8150 H   0  0  0  0  0  0  0  0  0  0  0  0
   39.0080    9.6440   14.1060 H   0  0  0  0  0  0  0  0  0  0  0  0
   38.5980    7.7320   16.3070 H   0  0  0  0  0  0  0  0  0  0  0  0
   36.4720    7.3470   15.2960 H   0  0  0  0  0  0  0  0  0  0  0  0
   36.7570    9.1160   15.1360 H   0  0  0  0  0  0  0  0  0  0  0  0
   35.7650    8.1020   13.0510 H   0  0  0  0  0  0  0  0  0  0  0  0
   37.4000    8.8850   12.7620 H   0  0  0  0  0  0  0  0  0  0  0  0
   36.2250    3.2660   12.9640 H   0  0  0  0  0  0  0  0  0  0  0  0
   37.2390    4.2640   14.0300 H   0  0  0  0  0  0  0  0  0  0  0  0
   33.7160    3.3260   13.1600 H   0  0  0  0  0  0  0  0  0  0  0  0
   31.9150    3.3580   14.8560 H   0  0  0  0  0  0  0  0  0  0  0  0
   32.2630    4.4810   17.0510 H   0  0  0  0  0  0  0  0  0  0  0  0
   34.4830    5.4960   17.5830 H   0  0  0  0  0  0  0  0  0  0  0  0
   36.3180    5.4080   15.9320 H   0  0  0  0  0  0  0  0  0  0  0  0
   39.1310    5.4990   12.6490 H   0  0  0  0  0  0  0  0  0  0  0  0
   39.4480    7.2980   12.5610 H   0  0  0  0  0  0  0  0  0  0  0  0
   40.1610    6.4480   14.7280 H   0  0  0  0  0  0  0  0  0  0  0  0
   38.5610    5.7020   15.0660 H   0  0  0  0  0  0  0  0  0  0  0  0
   40.3920   11.3430   14.5350 H   0  0  0  0  0  0  0  0  0  0  0  0
  1  2  2  0  0  0  0
  2  3  1  0  0  0  0
  2  4  1  0  0  0  0
  4  5  1  0  0  0  0
  4 38  1  0  0  0  0
  4 39  1  0  0  0  0
  5  6  1  0  0  0  0
  6 34  2  0  0  0  0
  6  7  1  0  0  0  0
  7  8  1  0  0  0  0
  7  9  2  0  0  0  0
  9 10  1  0  0  0  0
  9 33  1  0  0  0  0
 10 32  2  0  0  0  0
 10 11  1  0  0  0  0
 11 12  2  0  0  0  0
 11 40  1  0  0  0  0
 12 13  1  0  0  0  0
 12 41  1  0  0  0  0
 13 14  2  0  0  0  0
 13 42  1  0  0  0  0
 14 15  1  0  0  0  0
 14 32  1  0  0  0  0
 15 16  1  0  0  0  0
 15 43  1  0  0  0  0
 16 31  1  0  0  0  0
 16 17  1  0  0  0  0
 16 44  1  0  0  0  0
 17 18  1  0  0  0  0
 17 45  1  0  0  0  0
 17 46  1  0  0  0  0
 18 19  1  0  0  0  0
 18 47  1  0  0  0  0
 18 48  1  0  0  0  0
 19 20  1  0  0  0  0
 19 30  1  0  0  0  0
 20 21  2  0  0  0  0
 20 22  2  0  0  0  0
 20 23  1  0  0  0  0
 23 24  1  0  0  0  0
 23 49  1  0  0  0  0
 23 50  1  0  0  0  0
 24 29  2  0  0  0  0
 24 25  1  0  0  0  0
 25 26  2  0  0  0  0
 25 51  1  0  0  0  0
 26 27  1  0  0  0  0
 26 52  1  0  0  0  0
 27 28  2  0  0  0  0
 27 53  1  0  0  0  0
 28 29  1  0  0  0  0
 28 54  1  0  0  0  0
 29 55  1  0  0  0  0
 30 31  1  0  0  0  0
 30 56  1  0  0  0  0
 30 57  1  0  0  0  0
 31 58  1  0  0  0  0
 31 59  1  0  0  0  0
 32 60  1  0  0  0  0
 33 34  1  0  0  0  0
 34 35  1  0  0  0  0
 35 36  2  0  0  0  0
 35 37  1  0  0  0  0
M  CHG  2   3  -1  37  -1
M  END
$$$$
