20667(2qbp)
 OpenBabel02232411173D
Structure written by MMmdl.
 60 63  0  0  0  0  0  0  0  0999 V2000
   42.5060   17.9700   12.6330 O   0  0  0  0  0  0  0  0  0  0  0  0
   41.3640   17.7090   13.0270 C   0  0  0  0  0  0  0  0  0  0  0  0
   40.3290   18.3630   12.7750 O   0  5  0  0  0  0  0  0  0  0  0  0
   41.1480   16.4520   13.9200 C   0  0  0  0  0  0  0  0  0  0  0  0
   42.4850   15.8590   13.9000 O   0  0  0  0  0  0  0  0  0  0  0  0
   42.6940   14.9110   14.8510 C   0  0  0  0  0  0  0  0  0  0  0  0
   42.1110   13.5860   14.7890 C   0  0  0  0  0  0  0  0  0  0  0  0
   40.9310   13.1350   13.3640 Br  0  0  0  0  0  0  0  0  0  0  0  0
   42.5090   12.7330   15.7850 C   0  0  0  0  0  0  0  0  0  0  0  0
   42.0940   11.3820   16.1080 C   0  0  0  0  0  0  0  0  0  0  0  0
   42.8940   10.5120   16.8900 C   0  0  0  0  0  0  0  0  0  0  0  0
   42.4340    9.2380   17.2060 C   0  0  0  0  0  0  0  0  0  0  0  0
   41.1990    8.7570   16.7420 C   0  0  0  0  0  0  0  0  0  0  0  0
   40.4060    9.6000   15.9560 C   0  0  0  0  0  0  0  0  0  0  0  0
   39.0900    9.2910   15.4810 N   0  0  0  0  0  0  0  0  0  0  0  0
   38.5090    7.9350   15.6030 C   0  0  0  0  0  0  0  0  0  0  0  0
   36.9790    8.0420   15.3680 C   0  0  0  0  0  0  0  0  0  0  0  0
   36.6000    8.2050   13.8850 C   0  0  0  0  0  0  0  0  0  0  0  0
   37.1860    7.1560   13.0080 N   0  0  0  0  0  0  0  0  0  0  0  0
   36.2180    5.8390   12.5480 S   0  0  0  0  0  0  0  0  0  0  0  0
   37.0600    4.8660   11.8630 O   0  0  0  0  0  0  0  0  0  0  0  0
   35.1740    6.4320   11.6930 O   0  0  0  0  0  0  0  0  0  0  0  0
   35.4030    5.1010   13.9250 C   0  0  0  0  0  0  0  0  0  0  0  0
   36.0110    3.7850   14.2900 C   0  0  0  0  0  0  0  0  0  0  0  0
   36.9840    3.7110   15.2990 C   0  0  0  0  0  0  0  0  0  0  0  0
   37.5680    2.4850   15.6250 C   0  0  0  0  0  0  0  0  0  0  0  0
   37.1770    1.3200   14.9600 C   0  0  0  0  0  0  0  0  0  0  0  0
   36.1890    1.3840   13.9720 C   0  0  0  0  0  0  0  0  0  0  0  0
   35.6030    2.6080   13.6380 C   0  0  0  0  0  0  0  0  0  0  0  0
   38.6580    7.0200   13.1910 C   0  0  0  0  0  0  0  0  0  0  0  0
   39.1040    6.8660   14.6510 C   0  0  0  0  0  0  0  0  0  0  0  0
   40.8530   10.9090   15.6670 C   0  0  0  0  0  0  0  0  0  0  0  0
   43.6740   13.5780   16.7850 S   0  0  0  0  0  0  0  0  0  0  0  0
   43.5840   15.0710   15.8820 C   0  0  0  0  0  0  0  0  0  0  0  0
   44.4100   16.2900   16.3040 C   0  0  0  0  0  0  0  0  0  0  0  0
   45.0440   16.1490   17.3740 O   0  0  0  0  0  0  0  0  0  0  0  0
   44.4270   17.2790   15.5710 O   0  5  0  0  0  0  0  0  0  0  0  0
   40.4180   15.7510   13.4640 H   0  0  0  0  0  0  0  0  0  0  0  0
   40.8420   16.7100   14.9540 H   0  0  0  0  0  0  0  0  0  0  0  0
   43.8760   10.8160   17.2550 H   0  0  0  0  0  0  0  0  0  0  0  0
   43.0390    8.5770   17.8310 H   0  0  0  0  0  0  0  0  0  0  0  0
   40.8840    7.7480   16.9970 H   0  0  0  0  0  0  0  0  0  0  0  0
   38.8780    9.7130   14.5590 H   0  0  0  0  0  0  0  0  0  0  0  0
   38.6690    7.5760   16.6580 H   0  0  0  0  0  0  0  0  0  0  0  0
   36.5160    7.1240   15.8010 H   0  0  0  0  0  0  0  0  0  0  0  0
   36.5750    8.9110   15.9430 H   0  0  0  0  0  0  0  0  0  0  0  0
   35.4880    8.2040   13.7780 H   0  0  0  0  0  0  0  0  0  0  0  0
   36.9920    9.1930   13.5100 H   0  0  0  0  0  0  0  0  0  0  0  0
   35.3990    5.7730   14.8300 H   0  0  0  0  0  0  0  0  0  0  0  0
   34.3100    4.9510   13.6870 H   0  0  0  0  0  0  0  0  0  0  0  0
   37.2810    4.6070   15.8530 H   0  0  0  0  0  0  0  0  0  0  0  0
   38.3300    2.4390   16.4100 H   0  0  0  0  0  0  0  0  0  0  0  0
   37.6350    0.3610   15.2180 H   0  0  0  0  0  0  0  0  0  0  0  0
   35.8690    0.4680   13.4650 H   0  0  0  0  0  0  0  0  0  0  0  0
   34.8180    2.6340   12.8770 H   0  0  0  0  0  0  0  0  0  0  0  0
   39.0340    6.1450   12.6020 H   0  0  0  0  0  0  0  0  0  0  0  0
   39.1100    7.9660   12.7880 H   0  0  0  0  0  0  0  0  0  0  0  0
   40.2210    6.9150   14.6920 H   0  0  0  0  0  0  0  0  0  0  0  0
   38.8080    5.8650   15.0390 H   0  0  0  0  0  0  0  0  0  0  0  0
   40.1760   11.5510   15.1010 H   0  0  0  0  0  0  0  0  0  0  0  0
  1  2  2  0  0  0  0
  2  3  1  0  0  0  0
  2  4  1  0  0  0  0
  4  5  1  0  0  0  0
  4 38  1  0  0  0  0
  4 39  1  0  0  0  0
  5  6  1  0  0  0  0
  6 34  2  0  0  0  0
  6  7  1  0  0  0  0
  7  8  1  0  0  0  0
  7  9  2  0  0  0  0
  9 10  1  0  0  0  0
  9 33  1  0  0  0  0
 10 32  2  0  0  0  0
 10 11  1  0  0  0  0
 11 12  2  0  0  0  0
 11 40  1  0  0  0  0
 12 13  1  0  0  0  0
 12 41  1  0  0  0  0
 13 14  2  0  0  0  0
 13 42  1  0  0  0  0
 14 15  1  0  0  0  0
 14 32  1  0  0  0  0
 15 16  1  0  0  0  0
 15 43  1  0  0  0  0
 16 31  1  0  0  0  0
 16 17  1  0  0  0  0
 16 44  1  0  0  0  0
 17 18  1  0  0  0  0
 17 45  1  0  0  0  0
 17 46  1  0  0  0  0
 18 19  1  0  0  0  0
 18 47  1  0  0  0  0
 18 48  1  0  0  0  0
 19 20  1  0  0  0  0
 19 30  1  0  0  0  0
 20 21  2  0  0  0  0
 20 22  2  0  0  0  0
 20 23  1  0  0  0  0
 23 24  1  0  0  0  0
 23 49  1  0  0  0  0
 23 50  1  0  0  0  0
 24 29  2  0  0  0  0
 24 25  1  0  0  0  0
 25 26  2  0  0  0  0
 25 51  1  0  0  0  0
 26 27  1  0  0  0  0
 26 52  1  0  0  0  0
 27 28  2  0  0  0  0
 27 53  1  0  0  0  0
 28 29  1  0  0  0  0
 28 54  1  0  0  0  0
 29 55  1  0  0  0  0
 30 31  1  0  0  0  0
 30 56  1  0  0  0  0
 30 57  1  0  0  0  0
 31 58  1  0  0  0  0
 31 59  1  0  0  0  0
 32 60  1  0  0  0  0
 33 34  1  0  0  0  0
 34 35  1  0  0  0  0
 35 36  2  0  0  0  0
 35 37  1  0  0  0  0
M  CHG  2   3  -1  37  -1
M  END
$$$$
