p38a_2r
 OpenBabel02232411163D
Structure written by MMmdl.
 56 59  0  0  0  0  0  0  0  0999 V2000
   36.3180   35.9280   16.0070 C   0  0  0  0  0  0  0  0  0  0  0  0
   34.3320   35.0820   21.4690 C   0  0  0  0  0  0  0  0  0  0  0  0
   35.6630   35.4960   17.1560 C   0  0  0  0  0  0  0  0  0  0  0  0
   33.5780   39.2770   23.7690 C   0  0  0  0  0  0  0  0  0  0  0  0
   34.6230   37.9370   21.5950 C   0  0  0  0  0  0  0  0  0  0  0  0
   35.1930   37.2220   20.4850 C   0  0  0  0  0  0  0  0  0  0  0  0
   37.6150   36.4300   16.1810 C   0  0  0  0  0  0  0  0  0  0  0  0
   38.2650   36.4750   17.4170 C   0  0  0  0  0  0  0  0  0  0  0  0
   37.5730   36.0620   18.5610 C   0  0  0  0  0  0  0  0  0  0  0  0
   33.9540   37.2400   22.6460 C   0  0  0  0  0  0  0  0  0  0  0  0
   34.7030   39.3500   21.7090 C   0  0  0  0  0  0  0  0  0  0  0  0
   35.0670   35.8770   20.4480 C   0  0  0  0  0  0  0  0  0  0  0  0
   36.2710   35.5720   18.4260 C   0  0  0  0  0  0  0  0  0  0  0  0
   34.4430   34.9800   17.0800 F   0  0  0  0  0  0  0  0  0  0  0  0
   35.5550   34.9960   19.4840 O   0  0  0  0  0  0  0  0  0  0  0  0
   34.2220   40.0260   22.7600 N   0  0  0  0  0  0  0  0  0  0  0  0
   34.1360   33.8870   21.4070 O   0  0  0  0  0  0  0  0  0  0  0  0
   33.8110   35.8420   22.5770 N   0  0  0  0  0  0  0  0  0  0  0  0
   33.4220   37.9110   23.7210 N   0  0  0  0  0  0  0  0  0  0  0  0
   33.0250   40.0240   24.7960 N   0  0  0  0  0  0  0  0  0  0  0  0
   35.8430   35.9000   15.0230 H   0  0  0  0  0  0  0  0  0  0  0  0
   35.7090   37.7970   19.7120 H   0  0  0  0  0  0  0  0  0  0  0  0
   39.2880   36.8530   17.4950 H   0  0  0  0  0  0  0  0  0  0  0  0
   38.0480   36.1420   19.5420 H   0  0  0  0  0  0  0  0  0  0  0  0
   35.1830   39.9360   20.9090 H   0  0  0  0  0  0  0  0  0  0  0  0
   33.3330   41.0200   24.8610 H   0  0  0  0  0  0  0  0  0  0  0  0
   38.2440   36.9180   15.1140 F   0  0  0  0  0  0  0  0  0  0  0  0
   33.3690   38.4160   28.2800 C   0  0  0  0  0  0  0  0  0  0  0  0
   33.8220   39.0380   26.9560 C   0  0  0  0  0  0  0  0  0  0  0  0
   32.6010   39.5040   26.1320 C   0  0  0  0  0  0  0  0  0  0  0  0
   31.5210   38.4150   26.0240 C   0  0  0  0  0  0  0  0  0  0  0  0
   31.1990   37.8410   27.4080 C   0  0  0  0  0  0  0  0  0  0  0  0
   32.4010   37.3670   28.0610 O   0  0  0  0  0  0  0  0  0  0  0  0
   32.9250   39.1870   28.9520 H   0  0  0  0  0  0  0  0  0  0  0  0
   34.2030   37.8720   28.7800 H   0  0  0  0  0  0  0  0  0  0  0  0
   34.4170   38.2960   26.3750 H   0  0  0  0  0  0  0  0  0  0  0  0
   34.4820   39.9150   27.1700 H   0  0  0  0  0  0  0  0  0  0  0  0
   32.1480   40.4060   26.6440 H   0  0  0  0  0  0  0  0  0  0  0  0
   30.5990   38.8500   25.5700 H   0  0  0  0  0  0  0  0  0  0  0  0
   31.8740   37.5820   25.3690 H   0  0  0  0  0  0  0  0  0  0  0  0
   30.7030   38.5950   28.0590 H   0  0  0  0  0  0  0  0  0  0  0  0
   30.5890   36.9130   27.3270 H   0  0  0  0  0  0  0  0  0  0  0  0
   33.1290   35.0950   23.6740 C   0  0  0  0  0  0  0  0  0  0  0  0
   32.2760   35.7180   24.0620 H   0  0  0  0  0  0  0  0  0  0  0  0
   32.6950   34.1510   23.2370 H   0  0  0  0  0  0  0  0  0  0  0  0
   34.0700   34.7080   24.8660 C   0  0  0  0  0  0  0  0  0  0  0  0
   34.4780   35.8870   25.5790 O   0  0  0  0  0  0  0  0  0  0  0  0
   33.7090   36.4160   25.8810 H   0  0  0  0  0  0  0  0  0  0  0  0
   35.3940   34.0870   24.4180 C   0  0  0  0  0  0  0  0  0  0  0  0
   36.0080   34.8500   23.8970 H   0  0  0  0  0  0  0  0  0  0  0  0
   35.9690   33.7390   25.3050 H   0  0  0  0  0  0  0  0  0  0  0  0
   35.2150   33.2170   23.7520 H   0  0  0  0  0  0  0  0  0  0  0  0
   33.2820   33.7910   25.8150 C   0  0  0  0  0  0  0  0  0  0  0  0
   33.8240   33.6900   26.7830 H   0  0  0  0  0  0  0  0  0  0  0  0
   32.2670   34.1960   26.0320 H   0  0  0  0  0  0  0  0  0  0  0  0
   33.1640   32.7720   25.3780 H   0  0  0  0  0  0  0  0  0  0  0  0
  1  3  2  0  0  0  0
  1  7  1  0  0  0  0
  1 21  1  0  0  0  0
  2 12  1  0  0  0  0
  2 17  2  0  0  0  0
  2 18  1  0  0  0  0
  3 13  1  0  0  0  0
  3 14  1  0  0  0  0
  4 16  2  0  0  0  0
  4 19  1  0  0  0  0
  4 20  1  0  0  0  0
  5  6  1  0  0  0  0
  5 10  1  0  0  0  0
  5 11  2  0  0  0  0
  6 12  2  0  0  0  0
  6 22  1  0  0  0  0
  7  8  2  0  0  0  0
  7 27  1  0  0  0  0
  8  9  1  0  0  0  0
  8 23  1  0  0  0  0
  9 13  2  0  0  0  0
  9 24  1  0  0  0  0
 10 18  1  0  0  0  0
 10 19  2  0  0  0  0
 11 16  1  0  0  0  0
 11 25  1  0  0  0  0
 12 15  1  0  0  0  0
 13 15  1  0  0  0  0
 18 43  1  0  0  0  0
 20 26  1  0  0  0  0
 20 30  1  0  0  0  0
 28 29  1  0  0  0  0
 28 33  1  0  0  0  0
 28 34  1  0  0  0  0
 28 35  1  0  0  0  0
 29 30  1  0  0  0  0
 29 36  1  0  0  0  0
 29 37  1  0  0  0  0
 30 31  1  0  0  0  0
 30 38  1  0  0  0  0
 31 32  1  0  0  0  0
 31 39  1  0  0  0  0
 31 40  1  0  0  0  0
 32 33  1  0  0  0  0
 32 41  1  0  0  0  0
 32 42  1  0  0  0  0
 43 44  1  0  0  0  0
 43 45  1  0  0  0  0
 43 46  1  0  0  0  0
 46 47  1  0  0  0  0
 46 49  1  0  0  0  0
 46 53  1  0  0  0  0
 47 48  1  0  0  0  0
 49 50  1  0  0  0  0
 49 51  1  0  0  0  0
 49 52  1  0  0  0  0
 53 54  1  0  0  0  0
 53 55  1  0  0  0  0
 53 56  1  0  0  0  0
M  END
$$$$
