p38a_2o
 OpenBabel02232411163D
Structure written by MMmdl.
 55 58  0  0  0  0  0  0  0  0999 V2000
   38.2570   36.5090   17.2040 C   0  0  0  0  0  0  0  0  0  0  0  0
   34.5880   35.0880   21.2970 C   0  0  0  0  0  0  0  0  0  0  0  0
   37.4630   36.0650   18.2580 C   0  0  0  0  0  0  0  0  0  0  0  0
   34.0750   39.1800   23.8270 C   0  0  0  0  0  0  0  0  0  0  0  0
   34.6400   37.9600   21.4210 C   0  0  0  0  0  0  0  0  0  0  0  0
   34.9970   37.3030   20.1950 C   0  0  0  0  0  0  0  0  0  0  0  0
   37.6210   36.6570   15.9630 C   0  0  0  0  0  0  0  0  0  0  0  0
   36.2750   36.3550   15.7470 C   0  0  0  0  0  0  0  0  0  0  0  0
   35.5010   35.8990   16.8190 C   0  0  0  0  0  0  0  0  0  0  0  0
   34.3420   37.1960   22.5870 C   0  0  0  0  0  0  0  0  0  0  0  0
   34.5900   39.3770   21.5470 C   0  0  0  0  0  0  0  0  0  0  0  0
   35.0060   35.9510   20.1640 C   0  0  0  0  0  0  0  0  0  0  0  0
   36.1010   35.7460   18.0730 C   0  0  0  0  0  0  0  0  0  0  0  0
   37.9870   35.9370   19.4690 F   0  0  0  0  0  0  0  0  0  0  0  0
   35.3620   35.1310   19.0930 O   0  0  0  0  0  0  0  0  0  0  0  0
   34.3210   39.9970   22.7030 N   0  0  0  0  0  0  0  0  0  0  0  0
   34.4830   33.8810   21.2530 O   0  0  0  0  0  0  0  0  0  0  0  0
   34.3200   35.7870   22.5280 N   0  0  0  0  0  0  0  0  0  0  0  0
   34.0810   37.7970   23.7910 N   0  0  0  0  0  0  0  0  0  0  0  0
   33.7570   39.8110   25.0030 N   0  0  0  0  0  0  0  0  0  0  0  0
   39.3110   36.7660   17.3450 H   0  0  0  0  0  0  0  0  0  0  0  0
   35.2640   37.9190   19.3330 H   0  0  0  0  0  0  0  0  0  0  0  0
   35.8140   36.4860   14.7650 H   0  0  0  0  0  0  0  0  0  0  0  0
   34.4380   35.6800   16.6730 H   0  0  0  0  0  0  0  0  0  0  0  0
   34.7770   40.0110   20.6640 H   0  0  0  0  0  0  0  0  0  0  0  0
   33.8240   40.8470   25.0640 H   0  0  0  0  0  0  0  0  0  0  0  0
   38.3290   37.1490   14.9490 F   0  0  0  0  0  0  0  0  0  0  0  0
   32.5350   39.1430   28.5600 C   0  0  0  0  0  0  0  0  0  0  0  0
   32.5610   39.7600   27.1570 C   0  0  0  0  0  0  0  0  0  0  0  0
   33.6650   39.0910   26.3110 C   0  0  0  0  0  0  0  0  0  0  0  0
   35.0220   39.1610   27.0450 C   0  0  0  0  0  0  0  0  0  0  0  0
   34.8840   38.5770   28.4560 C   0  0  0  0  0  0  0  0  0  0  0  0
   33.8270   39.2190   29.2030 O   0  0  0  0  0  0  0  0  0  0  0  0
   32.2100   38.0780   28.5210 H   0  0  0  0  0  0  0  0  0  0  0  0
   31.8940   39.7430   29.2480 H   0  0  0  0  0  0  0  0  0  0  0  0
   32.7580   40.8570   27.2360 H   0  0  0  0  0  0  0  0  0  0  0  0
   31.5700   39.6190   26.6620 H   0  0  0  0  0  0  0  0  0  0  0  0
   33.3900   38.0170   26.1180 H   0  0  0  0  0  0  0  0  0  0  0  0
   35.7880   38.5810   26.4770 H   0  0  0  0  0  0  0  0  0  0  0  0
   35.3600   40.2240   27.1060 H   0  0  0  0  0  0  0  0  0  0  0  0
   34.6830   37.4810   28.4150 H   0  0  0  0  0  0  0  0  0  0  0  0
   35.7830   38.8080   29.0750 H   0  0  0  0  0  0  0  0  0  0  0  0
   33.9890   34.9790   23.7570 C   0  0  0  0  0  0  0  0  0  0  0  0
   34.3970   33.9440   23.5850 H   0  0  0  0  0  0  0  0  0  0  0  0
   34.5150   35.4550   24.6350 H   0  0  0  0  0  0  0  0  0  0  0  0
   32.4800   34.9300   24.0110 C   0  0  0  0  0  0  0  0  0  0  0  0
   32.1330   35.9610   24.3070 H   0  0  0  0  0  0  0  0  0  0  0  0
   31.9420   34.6940   23.0530 H   0  0  0  0  0  0  0  0  0  0  0  0
   31.9850   33.7710   25.2550 S   0  0  0  0  0  0  0  0  0  0  0  0
   30.6740   34.1650   25.8150 O   0  0  0  0  0  0  0  0  0  0  0  0
   33.0120   33.6510   26.3090 O   0  0  0  0  0  0  0  0  0  0  0  0
   31.8190   32.2600   24.4140 C   0  0  0  0  0  0  0  0  0  0  0  0
   32.8020   31.8290   24.0970 H   0  0  0  0  0  0  0  0  0  0  0  0
   31.3330   31.4740   25.0520 H   0  0  0  0  0  0  0  0  0  0  0  0
   31.1850   32.3460   23.4940 H   0  0  0  0  0  0  0  0  0  0  0  0
  1  3  2  0  0  0  0
  1  7  1  0  0  0  0
  1 21  1  0  0  0  0
  2 12  1  0  0  0  0
  2 17  2  0  0  0  0
  2 18  1  0  0  0  0
  3 13  1  0  0  0  0
  3 14  1  0  0  0  0
  4 16  2  0  0  0  0
  4 19  1  0  0  0  0
  4 20  1  0  0  0  0
  5  6  1  0  0  0  0
  5 10  1  0  0  0  0
  5 11  2  0  0  0  0
  6 12  2  0  0  0  0
  6 22  1  0  0  0  0
  7  8  2  0  0  0  0
  7 27  1  0  0  0  0
  8  9  1  0  0  0  0
  8 23  1  0  0  0  0
  9 13  2  0  0  0  0
  9 24  1  0  0  0  0
 10 18  1  0  0  0  0
 10 19  2  0  0  0  0
 11 16  1  0  0  0  0
 11 25  1  0  0  0  0
 12 15  1  0  0  0  0
 13 15  1  0  0  0  0
 18 43  1  0  0  0  0
 20 26  1  0  0  0  0
 20 30  1  0  0  0  0
 28 29  1  0  0  0  0
 28 33  1  0  0  0  0
 28 34  1  0  0  0  0
 28 35  1  0  0  0  0
 29 30  1  0  0  0  0
 29 36  1  0  0  0  0
 29 37  1  0  0  0  0
 30 31  1  0  0  0  0
 30 38  1  0  0  0  0
 31 32  1  0  0  0  0
 31 39  1  0  0  0  0
 31 40  1  0  0  0  0
 32 33  1  0  0  0  0
 32 41  1  0  0  0  0
 32 42  1  0  0  0  0
 43 44  1  0  0  0  0
 43 45  1  0  0  0  0
 43 46  1  0  0  0  0
 46 47  1  0  0  0  0
 46 48  1  0  0  0  0
 46 49  1  0  0  0  0
 49 50  2  0  0  0  0
 49 51  2  0  0  0  0
 49 52  1  0  0  0  0
 52 53  1  0  0  0  0
 52 54  1  0  0  0  0
 52 55  1  0  0  0  0
M  END
$$$$
