CAT-13i
 OpenBabel02232411143D
Structure written by MMmdl.
 46 49  0  0  1  0  0  0  0  0999 V2000
   11.7740   -1.8480    1.1940 C   0  0  0  0  0  0  0  0  0  0  0  0
   13.0630   -2.2530    0.6010 N   0  0  0  0  0  0  0  0  0  0  0  0
   14.2420   -2.3700    1.3490 C   0  0  0  0  0  0  0  0  0  0  0  0
   14.3450   -2.3750    2.7050 N   0  0  0  0  0  0  0  0  0  0  0  0
   15.3230   -2.5770    0.4960 N   0  3  0  0  0  0  0  0  0  0  0  0
   14.8420   -2.8770   -0.9020 C   0  0  2  0  0  0  0  0  0  0  0  0
   15.0970   -4.3400   -1.2750 C   0  0  0  0  0  0  0  0  0  0  0  0
   14.6900   -5.4540   -0.3230 C   0  0  0  0  0  0  0  0  0  0  0  0
   13.7280   -5.4190    0.8590 C   0  0  0  0  0  0  0  0  0  0  0  0
   13.3300   -6.1420   -0.4040 C   0  0  0  0  0  0  0  0  0  0  0  0
   15.4140   -1.8250   -1.8500 C   0  0  0  0  0  0  0  0  0  0  0  0
   16.0880   -2.1570   -3.0290 C   0  0  0  0  0  0  0  0  0  0  0  0
   16.5440   -1.1380   -3.8750 C   0  0  0  0  0  0  0  0  0  0  0  0
   16.3330    0.2050   -3.5620 C   0  0  0  0  0  0  0  0  0  0  0  0
   15.6640    0.5540   -2.3750 C   0  0  0  0  0  0  0  0  0  0  0  0
   15.4150    1.9690   -2.0150 C   0  0  0  0  0  0  0  0  0  0  0  0
   14.9950    2.9010   -2.9790 C   0  0  0  0  0  0  0  0  0  0  0  0
   14.6800    4.2120   -2.6040 C   0  0  0  0  0  0  0  0  0  0  0  0
   14.7610    4.6110   -1.2660 C   0  0  0  0  0  0  0  0  0  0  0  0
   15.1950    3.6790   -0.3210 C   0  0  0  0  0  0  0  0  0  0  0  0
   15.2360    4.1110    1.3490 Cl  0  0  0  0  0  0  0  0  0  0  0  0
   15.5510    2.3780   -0.6780 C   0  0  0  0  0  0  0  0  0  0  0  0
   15.2080   -0.4700   -1.5330 C   0  0  0  0  0  0  0  0  0  0  0  0
   13.3060   -2.6050   -0.8040 C   0  0  0  0  0  0  0  0  0  0  0  0
   12.4400   -2.6180   -1.6200 O   0  0  0  0  0  0  0  0  0  0  0  0
   11.6390   -2.3270    2.2000 H   0  0  0  0  0  0  0  0  0  0  0  0
   11.7710   -0.7320    1.3020 H   0  0  0  0  0  0  0  0  0  0  0  0
   10.9350   -2.1720    0.5240 H   0  0  0  0  0  0  0  0  0  0  0  0
   13.6210   -1.9360    3.3220 H   0  0  0  0  0  0  0  0  0  0  0  0
   16.2160   -2.9840    0.8750 H   0  0  0  0  0  0  0  0  0  0  0  0
   16.2080   -4.4430   -1.4320 H   0  0  0  0  0  0  0  0  0  0  0  0
   14.5880   -4.5410   -2.2570 H   0  0  0  0  0  0  0  0  0  0  0  0
   15.5550   -6.1260   -0.1820 H   0  0  0  0  0  0  0  0  0  0  0  0
   14.0060   -6.0100    1.7440 H   0  0  0  0  0  0  0  0  0  0  0  0
   13.1680   -4.5360    1.1520 H   0  0  0  0  0  0  0  0  0  0  0  0
   12.5550   -5.7010   -1.0410 H   0  0  0  0  0  0  0  0  0  0  0  0
   13.2970   -7.2400   -0.3970 H   0  0  0  0  0  0  0  0  0  0  0  0
   16.2620   -3.1970   -3.3060 H   0  0  0  0  0  0  0  0  0  0  0  0
   17.0760   -1.3960   -4.7960 H   0  0  0  0  0  0  0  0  0  0  0  0
   16.6900    0.9800   -4.2470 H   0  0  0  0  0  0  0  0  0  0  0  0
   14.8940    2.6020   -4.0270 H   0  0  0  0  0  0  0  0  0  0  0  0
   14.3450    4.9260   -3.3660 H   0  0  0  0  0  0  0  0  0  0  0  0
   14.4680    5.6210   -0.9690 H   0  0  0  0  0  0  0  0  0  0  0  0
   15.9120    1.6730    0.0720 H   0  0  0  0  0  0  0  0  0  0  0  0
   14.6820   -0.2160   -0.6140 H   0  0  0  0  0  0  0  0  0  0  0  0
   15.3050   -2.3890    3.1430 H   0  0  0  0  0  0  0  0  0  0  0  0
  1  2  1  0  0  0  0
  1 26  1  0  0  0  0
  1 27  1  0  0  0  0
  1 28  1  0  0  0  0
  2  3  1  0  0  0  0
  2 24  1  0  0  0  0
  3  4  1  0  0  0  0
  3  5  2  0  0  0  0
  4 29  1  0  0  0  0
  4 46  1  0  0  0  0
  5  6  1  0  0  0  0
  5 30  1  0  0  0  0
  6  7  1  6  0  0  0
  6 11  1  0  0  0  0
  6 24  1  0  0  0  0
  7  8  1  0  0  0  0
  7 31  1  0  0  0  0
  7 32  1  0  0  0  0
  8  9  1  0  0  0  0
  8 10  1  0  0  0  0
  8 33  1  0  0  0  0
  9 10  1  0  0  0  0
  9 34  1  0  0  0  0
  9 35  1  0  0  0  0
 10 36  1  0  0  0  0
 10 37  1  0  0  0  0
 11 12  2  0  0  0  0
 11 23  1  0  0  0  0
 12 13  1  0  0  0  0
 12 38  1  0  0  0  0
 13 14  2  0  0  0  0
 13 39  1  0  0  0  0
 14 15  1  0  0  0  0
 14 40  1  0  0  0  0
 15 16  1  0  0  0  0
 15 23  2  0  0  0  0
 16 17  2  0  0  0  0
 16 22  1  0  0  0  0
 17 18  1  0  0  0  0
 17 41  1  0  0  0  0
 18 19  2  0  0  0  0
 18 42  1  0  0  0  0
 19 20  1  0  0  0  0
 19 43  1  0  0  0  0
 20 21  1  0  0  0  0
 20 22  2  0  0  0  0
 22 44  1  0  0  0  0
 23 45  1  0  0  0  0
 24 25  2  0  0  0  0
M  CHG  1   5   1
M  END
$$$$
