2p
                    3D
 Schrodinger Suite 2022-3.
 58 61  0  0  1  0  0  0  0  0999 V2000
   27.1260    8.8460   30.4830 C   0  0  0  0  0  0  0  0  0  0  0  0
   28.5030    9.3970   30.8770 C   0  0  0  0  0  0  0  0  0  0  0  0
   28.5180    8.1420   32.9370 C   0  0  0  0  0  0  0  0  0  0  0  0
   27.1590    7.5060   32.6290 C   0  0  0  0  0  0  0  0  0  0  0  0
   15.9330   10.5300   31.6960 C   0  0  0  0  0  0  0  0  0  0  0  0
   29.2290    8.4790   31.7230 O   0  0  0  0  0  0  0  0  0  0  0  0
   21.3360   12.5450   31.3140 C   0  0  0  0  0  0  0  0  0  0  0  0
   17.2240   11.0360   31.8220 C   0  0  0  0  0  0  0  0  0  0  0  0
   23.9040    8.4540   31.0710 C   0  0  0  0  0  0  0  0  0  0  0  0
   26.3260    8.4630   31.7490 C   0  0  0  0  0  0  0  0  0  0  0  0
   21.4850    9.7220   30.7250 C   0  0  0  0  0  0  0  0  0  0  0  0
   20.2150   10.3920   30.6600 C   0  0  0  0  0  0  0  0  0  0  0  0
   15.2490   10.8380   30.5130 C   0  0  0  0  0  0  0  0  0  0  0  0
   15.7980   11.6160   29.4920 C   0  0  0  0  0  0  0  0  0  0  0  0
   17.0900   12.1290   29.6490 C   0  0  0  0  0  0  0  0  0  0  0  0
   22.6370   10.4320   31.1730 C   0  0  0  0  0  0  0  0  0  0  0  0
   21.6680    8.3580   30.3760 C   0  0  0  0  0  0  0  0  0  0  0  0
   20.1520   11.7050   30.9810 C   0  0  0  0  0  0  0  0  0  0  0  0
   17.7950   11.8510   30.8230 C   0  0  0  0  0  0  0  0  0  0  0  0
   23.8240   12.5350   31.8280 C   0  0  0  0  0  0  0  0  0  0  0  0
   17.9440   10.7400   32.8970 F   0  0  0  0  0  0  0  0  0  0  0  0
   14.0260   10.3390   30.3470 F   0  0  0  0  0  0  0  0  0  0  0  0
   19.0150   12.5050   31.0430 O   0  0  0  0  0  0  0  0  0  0  0  0
   22.8350    7.7130   30.5330 N   0  0  0  0  0  0  0  0  0  0  0  0
   21.3330   13.7420   31.4920 O   0  0  0  0  0  0  0  0  0  0  0  0
   22.5650   11.8070   31.4540 N   0  0  0  0  0  0  0  0  0  0  0  0
   23.8430    9.8010   31.3490 N   0  0  0  0  0  0  0  0  0  0  0  0
   25.0550    7.7630   31.3970 N   0  0  0  0  0  0  0  0  0  0  0  0
   15.2430   11.8150   28.5730 H   0  0  0  0  0  0  0  0  0  0  0  0
   17.5400   12.7310   28.8530 H   0  0  0  0  0  0  0  0  0  0  0  0
   15.4940    9.8920   32.4650 H   0  0  0  0  0  0  0  0  0  0  0  0
   19.3440    9.8080   30.3590 H   0  0  0  0  0  0  0  0  0  0  0  0
   20.8310    7.7830   29.9480 H   0  0  0  0  0  0  0  0  0  0  0  0
   26.5770    9.6230   29.9010 H   0  0  0  0  0  0  0  0  0  0  0  0
   27.2520    7.9440   29.8410 H   0  0  0  0  0  0  0  0  0  0  0  0
   28.4100   10.3730   31.4050 H   0  0  0  0  0  0  0  0  0  0  0  0
   29.1750    9.4890   29.9950 H   0  0  0  0  0  0  0  0  0  0  0  0
   29.2080    7.4120   33.4200 H   0  0  0  0  0  0  0  0  0  0  0  0
   28.4010    9.0640   33.5520 H   0  0  0  0  0  0  0  0  0  0  0  0
   26.6170    7.2960   33.5820 H   0  0  0  0  0  0  0  0  0  0  0  0
   27.3120    6.5370   32.0930 H   0  0  0  0  0  0  0  0  0  0  0  0
   26.0810    9.3930   32.3310 H   0  0  0  0  0  0  0  0  0  0  0  0
   23.5370   13.4760   32.3680 H   0  0  0  0  0  0  0  0  0  0  0  0
   24.4130   11.8710   32.5220 H   0  0  0  0  0  0  0  0  0  0  0  0
   25.1840    6.8030   31.0150 H   0  0  0  0  0  0  0  0  0  0  0  0
   24.6600   12.8600   30.5730 C   0  0  0  0  0  0  0  0  0  0  0  0
   24.4820   12.0670   29.7940 H   0  0  0  0  0  0  0  0  0  0  0  0
   24.3450   13.8340   30.1270 H   0  0  0  0  0  0  0  0  0  0  0  0
   26.1660   12.8590   30.8500 C   0  0  0  0  0  0  0  0  0  0  0  0
   26.6960   12.8160   29.8510 H   0  0  0  0  0  0  0  0  0  0  0  0
   26.4410   11.8960   31.3620 H   0  0  0  0  0  0  0  0  0  0  0  0
   26.7730   14.2290   31.7630 S   0  0  0  0  0  0  0  0  0  0  0  0
   26.5980   15.4950   31.0150 O   0  0  0  0  0  0  0  0  0  0  0  0
   26.1060   14.3200   33.0810 O   0  0  0  0  0  0  0  0  0  0  0  0
   28.4620   13.8770   31.9770 C   0  0  0  0  0  0  0  0  0  0  0  0
   28.6430   13.1280   32.7920 H   0  0  0  0  0  0  0  0  0  0  0  0
   28.9260   13.4320   31.0530 H   0  0  0  0  0  0  0  0  0  0  0  0
   29.0710   14.7780   32.2340 H   0  0  0  0  0  0  0  0  0  0  0  0
  1  2  1  0  0  0  0
  1 10  1  0  0  0  0
  1 34  1  0  0  0  0
  1 35  1  0  0  0  0
  2  6  1  0  0  0  0
  2 36  1  0  0  0  0
  2 37  1  0  0  0  0
  3  4  1  0  0  0  0
  3  6  1  0  0  0  0
  3 38  1  0  0  0  0
  3 39  1  0  0  0  0
  4 10  1  0  0  0  0
  4 40  1  0  0  0  0
  4 41  1  0  0  0  0
  5  8  1  0  0  0  0
  5 13  2  0  0  0  0
  5 31  1  0  0  0  0
  7 18  1  0  0  0  0
  7 25  2  0  0  0  0
  7 26  1  0  0  0  0
  8 19  2  0  0  0  0
  8 21  1  0  0  0  0
  9 24  1  0  0  0  0
  9 27  2  0  0  0  0
  9 28  1  0  0  0  0
 10 28  1  0  0  0  0
 10 42  1  0  0  0  0
 11 12  1  0  0  0  0
 11 16  2  0  0  0  0
 11 17  1  0  0  0  0
 12 18  2  0  0  0  0
 12 32  1  0  0  0  0
 13 14  1  0  0  0  0
 13 22  1  0  0  0  0
 14 15  2  0  0  0  0
 14 29  1  0  0  0  0
 15 19  1  0  0  0  0
 15 30  1  0  0  0  0
 16 26  1  0  0  0  0
 16 27  1  0  0  0  0
 17 24  2  0  0  0  0
 17 33  1  0  0  0  0
 18 23  1  0  0  0  0
 19 23  1  0  0  0  0
 20 26  1  0  0  0  0
 20 43  1  0  0  0  0
 20 44  1  0  0  0  0
 20 46  1  0  0  0  0
 28 45  1  0  0  0  0
 46 47  1  0  0  0  0
 46 48  1  0  0  0  0
 46 49  1  0  0  0  0
 49 50  1  0  0  0  0
 49 51  1  0  0  0  0
 49 52  1  0  0  0  0
 52 53  2  0  0  0  0
 52 54  2  0  0  0  0
 52 55  1  0  0  0  0
 55 56  1  0  0  0  0
 55 57  1  0  0  0  0
 55 58  1  0  0  0  0
M  END
$$$$
