p38a_3flw
 OpenBabel02232411163D
Structure written by MMmdl.
 49 51  0  0  0  0  0  0  0  0999 V2000
   36.4100   36.1180   15.7090 C   0  0  0  0  0  0  0  0  0  0  0  0
   37.6970   36.6430   15.8840 C   0  0  0  0  0  0  0  0  0  0  0  0
   32.9740   37.2440   26.4080 C   0  0  0  0  0  0  0  0  0  0  0  0
   34.4120   36.7880   26.6480 C   0  0  0  0  0  0  0  0  0  0  0  0
   33.1330   39.5880   27.4680 C   0  0  0  0  0  0  0  0  0  0  0  0
   33.0600   34.7570   23.1550 C   0  0  0  0  0  0  0  0  0  0  0  0
   34.5900   35.0480   16.7650 F   0  0  0  0  0  0  0  0  0  0  0  0
   35.7920   35.6010   16.8430 C   0  0  0  0  0  0  0  0  0  0  0  0
   38.2900   37.1990   14.8310 F   0  0  0  0  0  0  0  0  0  0  0  0
   38.3680   36.6450   17.1100 C   0  0  0  0  0  0  0  0  0  0  0  0
   37.7110   36.1560   18.2440 C   0  0  0  0  0  0  0  0  0  0  0  0
   36.4230   35.6340   18.1040 C   0  0  0  0  0  0  0  0  0  0  0  0
   35.7450   34.9750   19.1370 O   0  0  0  0  0  0  0  0  0  0  0  0
   35.2050   35.7810   20.1350 C   0  0  0  0  0  0  0  0  0  0  0  0
   35.3340   37.1170   20.3030 C   0  0  0  0  0  0  0  0  0  0  0  0
   34.7490   37.7260   21.4670 C   0  0  0  0  0  0  0  0  0  0  0  0
   34.8410   39.1170   21.7480 C   0  0  0  0  0  0  0  0  0  0  0  0
   34.4020   39.6620   22.8900 N   0  0  0  0  0  0  0  0  0  0  0  0
   34.4180   34.8980   21.0380 C   0  0  0  0  0  0  0  0  0  0  0  0
   34.2280   33.7140   20.8620 O   0  0  0  0  0  0  0  0  0  0  0  0
   33.8570   35.5580   22.1850 N   0  0  0  0  0  0  0  0  0  0  0  0
   34.0600   36.9280   22.4270 C   0  0  0  0  0  0  0  0  0  0  0  0
   33.5870   37.4580   23.6030 N   0  0  0  0  0  0  0  0  0  0  0  0
   33.8270   38.7940   23.8480 C   0  0  0  0  0  0  0  0  0  0  0  0
   33.5680   39.3530   25.0790 N   0  0  0  0  0  0  0  0  0  0  0  0
   32.7720   38.7560   26.2110 C   0  0  0  0  0  0  0  0  0  0  0  0
   32.3960   39.1640   28.7480 C   0  0  0  0  0  0  0  0  0  0  0  0
   33.1970   38.3160   29.5800 O   0  0  0  0  0  0  0  0  0  0  0  0
   34.3970   36.1750   27.9680 O   0  0  0  0  0  0  0  0  0  0  0  0
   35.9110   36.1330   14.7380 H   0  0  0  0  0  0  0  0  0  0  0  0
   32.5550   36.7040   25.5180 H   0  0  0  0  0  0  0  0  0  0  0  0
   32.3550   36.9230   27.2870 H   0  0  0  0  0  0  0  0  0  0  0  0
   34.7270   36.0140   25.9160 H   0  0  0  0  0  0  0  0  0  0  0  0
   35.1320   37.6330   26.6890 H   0  0  0  0  0  0  0  0  0  0  0  0
   34.2350   39.5420   27.6500 H   0  0  0  0  0  0  0  0  0  0  0  0
   32.8750   40.6590   27.2690 H   0  0  0  0  0  0  0  0  0  0  0  0
   32.0750   35.2600   23.3480 H   0  0  0  0  0  0  0  0  0  0  0  0
   32.8700   33.7310   22.7440 H   0  0  0  0  0  0  0  0  0  0  0  0
   33.6150   34.6660   24.1260 H   0  0  0  0  0  0  0  0  0  0  0  0
   39.3800   37.0470   17.1970 H   0  0  0  0  0  0  0  0  0  0  0  0
   38.2010   36.2080   19.2190 H   0  0  0  0  0  0  0  0  0  0  0  0
   35.8760   37.7590   19.6040 H   0  0  0  0  0  0  0  0  0  0  0  0
   35.2880   39.7990   21.0050 H   0  0  0  0  0  0  0  0  0  0  0  0
   33.6760   40.3920   25.1520 H   0  0  0  0  0  0  0  0  0  0  0  0
   31.6800   38.9240   25.9710 H   0  0  0  0  0  0  0  0  0  0  0  0
   32.2150   40.0560   29.3970 H   0  0  0  0  0  0  0  0  0  0  0  0
   31.4380   38.6430   28.5170 H   0  0  0  0  0  0  0  0  0  0  0  0
   33.5920   37.5840   29.0210 H   0  0  0  0  0  0  0  0  0  0  0  0
   35.2090   35.5950   28.0540 H   0  0  0  0  0  0  0  0  0  0  0  0
  1  2  2  0  0  0  0
  1  8  1  0  0  0  0
  1 30  1  0  0  0  0
  2  9  1  0  0  0  0
  2 10  1  0  0  0  0
  3  4  1  0  0  0  0
  3 26  1  0  0  0  0
  3 31  1  0  0  0  0
  3 32  1  0  0  0  0
  4 29  1  0  0  0  0
  4 33  1  0  0  0  0
  4 34  1  0  0  0  0
  5 26  1  0  0  0  0
  5 27  1  0  0  0  0
  5 35  1  0  0  0  0
  5 36  1  0  0  0  0
  6 21  1  0  0  0  0
  6 37  1  0  0  0  0
  6 38  1  0  0  0  0
  6 39  1  0  0  0  0
  7  8  1  0  0  0  0
  8 12  2  0  0  0  0
 10 11  2  0  0  0  0
 10 40  1  0  0  0  0
 11 12  1  0  0  0  0
 11 41  1  0  0  0  0
 12 13  1  0  0  0  0
 13 14  1  0  0  0  0
 14 15  2  0  0  0  0
 14 19  1  0  0  0  0
 15 16  1  0  0  0  0
 15 42  1  0  0  0  0
 16 17  2  0  0  0  0
 16 22  1  0  0  0  0
 17 18  1  0  0  0  0
 17 43  1  0  0  0  0
 18 24  2  0  0  0  0
 19 20  2  0  0  0  0
 19 21  1  0  0  0  0
 21 22  1  0  0  0  0
 22 23  2  0  0  0  0
 23 24  1  0  0  0  0
 24 25  1  0  0  0  0
 25 26  1  0  0  0  0
 25 44  1  0  0  0  0
 26 45  1  0  0  0  0
 27 28  1  0  0  0  0
 27 46  1  0  0  0  0
 27 47  1  0  0  0  0
 28 48  1  0  0  0  0
 29 49  1  0  0  0  0
M  END
$$$$
