p38a_2l
 OpenBabel02232411163D
Structure written by MMmdl.
 49 52  0  0  0  0  0  0  0  0999 V2000
   36.3940   36.1200   15.7090 C   0  0  0  0  0  0  0  0  0  0  0  0
   34.5750   34.9180   21.1720 C   0  0  0  0  0  0  0  0  0  0  0  0
   35.7650   35.6110   16.8400 C   0  0  0  0  0  0  0  0  0  0  0  0
   33.9630   38.8980   23.8540 C   0  0  0  0  0  0  0  0  0  0  0  0
   34.8180   37.7700   21.4840 C   0  0  0  0  0  0  0  0  0  0  0  0
   35.3220   37.1480   20.2890 C   0  0  0  0  0  0  0  0  0  0  0  0
   37.6850   36.6340   15.8910 C   0  0  0  0  0  0  0  0  0  0  0  0
   38.3500   36.6290   17.1200 C   0  0  0  0  0  0  0  0  0  0  0  0
   37.6800   36.1480   18.2510 C   0  0  0  0  0  0  0  0  0  0  0  0
   34.2890   36.9680   22.5400 C   0  0  0  0  0  0  0  0  0  0  0  0
   34.8360   39.1750   21.6940 C   0  0  0  0  0  0  0  0  0  0  0  0
   35.2350   35.8040   20.1710 C   0  0  0  0  0  0  0  0  0  0  0  0
   36.3870   35.6390   18.1050 C   0  0  0  0  0  0  0  0  0  0  0  0
   34.5570   35.0710   16.7550 F   0  0  0  0  0  0  0  0  0  0  0  0
   35.6890   34.9950   19.1320 O   0  0  0  0  0  0  0  0  0  0  0  0
   34.4300   39.7540   22.8350 N   0  0  0  0  0  0  0  0  0  0  0  0
   34.3640   33.7350   21.0180 O   0  0  0  0  0  0  0  0  0  0  0  0
   34.2030   35.5710   22.3970 N   0  0  0  0  0  0  0  0  0  0  0  0
   33.8650   37.5250   23.7180 N   0  0  0  0  0  0  0  0  0  0  0  0
   33.5670   39.4670   25.0390 N   0  0  0  0  0  0  0  0  0  0  0  0
   35.9010   36.1400   14.7350 H   0  0  0  0  0  0  0  0  0  0  0  0
   35.7700   37.7880   19.5250 H   0  0  0  0  0  0  0  0  0  0  0  0
   39.3650   37.0210   17.2120 H   0  0  0  0  0  0  0  0  0  0  0  0
   38.1650   36.1970   19.2290 H   0  0  0  0  0  0  0  0  0  0  0  0
   35.1940   39.8430   20.8940 H   0  0  0  0  0  0  0  0  0  0  0  0
   33.6510   40.4920   25.1760 H   0  0  0  0  0  0  0  0  0  0  0  0
   38.2890   37.1850   14.8410 F   0  0  0  0  0  0  0  0  0  0  0  0
   33.0560   40.3550   28.0890 C   0  0  0  0  0  0  0  0  0  0  0  0
   32.1830   39.5800   27.0940 C   0  0  0  0  0  0  0  0  0  0  0  0
   32.9940   38.6560   26.1620 C   0  0  0  0  0  0  0  0  0  0  0  0
   34.0850   37.8920   26.9410 C   0  0  0  0  0  0  0  0  0  0  0  0
   34.8760   38.7980   27.8850 C   0  0  0  0  0  0  0  0  0  0  0  0
   33.9920   39.5060   28.7850 O   0  0  0  0  0  0  0  0  0  0  0  0
   32.4420   40.7680   28.9220 H   0  0  0  0  0  0  0  0  0  0  0  0
   33.6260   41.1580   27.5720 H   0  0  0  0  0  0  0  0  0  0  0  0
   31.6020   40.3130   26.4810 H   0  0  0  0  0  0  0  0  0  0  0  0
   31.4530   38.9420   27.6510 H   0  0  0  0  0  0  0  0  0  0  0  0
   32.2870   37.8990   25.7080 H   0  0  0  0  0  0  0  0  0  0  0  0
   33.5750   37.0840   27.5280 H   0  0  0  0  0  0  0  0  0  0  0  0
   34.7880   37.3890   26.2320 H   0  0  0  0  0  0  0  0  0  0  0  0
   35.5010   38.2050   28.5910 H   0  0  0  0  0  0  0  0  0  0  0  0
   35.4830   39.5390   27.3170 H   0  0  0  0  0  0  0  0  0  0  0  0
   33.6020   34.7400   23.4990 C   0  0  0  0  0  0  0  0  0  0  0  0
   34.0370   33.7060   23.4280 H   0  0  0  0  0  0  0  0  0  0  0  0
   33.8990   35.1880   24.4900 H   0  0  0  0  0  0  0  0  0  0  0  0
   32.0800   34.6800   23.3950 C   0  0  0  0  0  0  0  0  0  0  0  0
   31.6320   35.6950   23.5150 H   0  0  0  0  0  0  0  0  0  0  0  0
   31.7460   34.2490   22.4270 H   0  0  0  0  0  0  0  0  0  0  0  0
   31.6890   34.0380   24.2230 H   0  0  0  0  0  0  0  0  0  0  0  0
  1  3  2  0  0  0  0
  1  7  1  0  0  0  0
  1 21  1  0  0  0  0
  2 12  1  0  0  0  0
  2 17  2  0  0  0  0
  2 18  1  0  0  0  0
  3 13  1  0  0  0  0
  3 14  1  0  0  0  0
  4 16  2  0  0  0  0
  4 19  1  0  0  0  0
  4 20  1  0  0  0  0
  5  6  1  0  0  0  0
  5 10  1  0  0  0  0
  5 11  2  0  0  0  0
  6 12  2  0  0  0  0
  6 22  1  0  0  0  0
  7  8  2  0  0  0  0
  7 27  1  0  0  0  0
  8  9  1  0  0  0  0
  8 23  1  0  0  0  0
  9 13  2  0  0  0  0
  9 24  1  0  0  0  0
 10 18  1  0  0  0  0
 10 19  2  0  0  0  0
 11 16  1  0  0  0  0
 11 25  1  0  0  0  0
 12 15  1  0  0  0  0
 13 15  1  0  0  0  0
 18 43  1  0  0  0  0
 20 26  1  0  0  0  0
 20 30  1  0  0  0  0
 28 29  1  0  0  0  0
 28 33  1  0  0  0  0
 28 34  1  0  0  0  0
 28 35  1  0  0  0  0
 29 30  1  0  0  0  0
 29 36  1  0  0  0  0
 29 37  1  0  0  0  0
 30 31  1  0  0  0  0
 30 38  1  0  0  0  0
 31 32  1  0  0  0  0
 31 39  1  0  0  0  0
 31 40  1  0  0  0  0
 32 33  1  0  0  0  0
 32 41  1  0  0  0  0
 32 42  1  0  0  0  0
 43 44  1  0  0  0  0
 43 45  1  0  0  0  0
 43 46  1  0  0  0  0
 46 47  1  0  0  0  0
 46 48  1  0  0  0  0
 46 49  1  0  0  0  0
M  END
$$$$
