p38a_2x
 OpenBabel02232411163D
Structure written by MMmdl.
 43 46  0  0  1  0  0  0  0  0999 V2000
   36.3640   36.0480   15.7890 C   0  0  0  0  0  0  0  0  0  0  0  0
   34.4960   35.0110   21.2640 C   0  0  0  0  0  0  0  0  0  0  0  0
   35.7320   35.5590   16.9290 C   0  0  0  0  0  0  0  0  0  0  0  0
   33.9050   39.1150   23.7550 C   0  0  0  0  0  0  0  0  0  0  0  0
   34.7660   37.8700   21.4500 C   0  0  0  0  0  0  0  0  0  0  0  0
   35.2810   37.1880   20.2940 C   0  0  0  0  0  0  0  0  0  0  0  0
   37.6540   36.5650   15.9640 C   0  0  0  0  0  0  0  0  0  0  0  0
   38.3190   36.5770   17.1940 C   0  0  0  0  0  0  0  0  0  0  0  0
   37.6490   36.1140   18.3310 C   0  0  0  0  0  0  0  0  0  0  0  0
   34.1980   37.1300   22.5290 C   0  0  0  0  0  0  0  0  0  0  0  0
   34.8070   39.2820   21.5930 C   0  0  0  0  0  0  0  0  0  0  0  0
   35.1820   35.8410   20.2360 C   0  0  0  0  0  0  0  0  0  0  0  0
   36.3540   35.6050   18.1930 C   0  0  0  0  0  0  0  0  0  0  0  0
   33.4310   34.9880   23.5530 C   0  0  0  0  0  0  0  0  0  0  0  0
   34.5230   35.0210   16.8500 F   0  0  0  0  0  0  0  0  0  0  0  0
   35.6540   34.9890   19.2400 O   0  0  0  0  0  0  0  0  0  0  0  0
   34.3960   39.9150   22.7020 N   0  0  0  0  0  0  0  0  0  0  0  0
   34.2910   33.8190   21.1790 O   0  0  0  0  0  0  0  0  0  0  0  0
   34.0590   35.7360   22.4270 N   0  0  0  0  0  0  0  0  0  0  0  0
   33.7710   37.7460   23.6830 N   0  0  0  0  0  0  0  0  0  0  0  0
   33.6020   39.7900   24.9210 N   0  0  0  0  0  0  0  0  0  0  0  0
   35.8730   36.0510   14.8140 H   0  0  0  0  0  0  0  0  0  0  0  0
   35.7480   37.7890   19.5100 H   0  0  0  0  0  0  0  0  0  0  0  0
   39.3350   36.9710   17.2780 H   0  0  0  0  0  0  0  0  0  0  0  0
   38.1330   36.1760   19.3080 H   0  0  0  0  0  0  0  0  0  0  0  0
   35.1790   39.9060   20.7650 H   0  0  0  0  0  0  0  0  0  0  0  0
   34.0390   35.1280   24.4870 H   0  0  0  0  0  0  0  0  0  0  0  0
   32.3940   35.3790   23.7390 H   0  0  0  0  0  0  0  0  0  0  0  0
   33.3750   33.8950   23.3100 H   0  0  0  0  0  0  0  0  0  0  0  0
   33.6810   40.8300   24.9130 H   0  0  0  0  0  0  0  0  0  0  0  0
   38.2590   37.1040   14.9080 F   0  0  0  0  0  0  0  0  0  0  0  0
   32.4440   37.4070   27.4960 O   0  0  0  0  0  0  0  0  0  0  0  0
   31.2290   37.5200   26.6960 C   0  0  0  0  0  0  0  0  0  0  0  0
   31.4320   38.6430   25.6690 C   0  0  0  0  0  0  0  0  0  0  0  0
   32.7880   39.2820   26.0500 C   0  0  1  0  0  0  0  0  0  0  0  0
   33.5010   38.1870   26.8850 C   0  0  0  0  0  0  0  0  0  0  0  0
   30.4300   37.7540   27.4340 H   0  0  0  0  0  0  0  0  0  0  0  0
   31.0700   36.5310   26.2150 H   0  0  0  0  0  0  0  0  0  0  0  0
   31.4530   38.2220   24.6370 H   0  0  0  0  0  0  0  0  0  0  0  0
   30.6140   39.3930   25.7130 H   0  0  0  0  0  0  0  0  0  0  0  0
   32.6040   40.1880   26.7000 H   0  0  0  0  0  0  0  0  0  0  0  0
   34.0760   38.6070   27.7370 H   0  0  0  0  0  0  0  0  0  0  0  0
   34.1130   37.5020   26.2590 H   0  0  0  0  0  0  0  0  0  0  0  0
  1  3  2  0  0  0  0
  1  7  1  0  0  0  0
  1 22  1  0  0  0  0
  2 12  1  0  0  0  0
  2 18  2  0  0  0  0
  2 19  1  0  0  0  0
  3 13  1  0  0  0  0
  3 15  1  0  0  0  0
  4 17  2  0  0  0  0
  4 20  1  0  0  0  0
  4 21  1  0  0  0  0
  5  6  1  0  0  0  0
  5 10  1  0  0  0  0
  5 11  2  0  0  0  0
  6 12  2  0  0  0  0
  6 23  1  0  0  0  0
  7  8  2  0  0  0  0
  7 31  1  0  0  0  0
  8  9  1  0  0  0  0
  8 24  1  0  0  0  0
  9 13  2  0  0  0  0
  9 25  1  0  0  0  0
 10 19  1  0  0  0  0
 10 20  2  0  0  0  0
 11 17  1  0  0  0  0
 11 26  1  0  0  0  0
 12 16  1  0  0  0  0
 13 16  1  0  0  0  0
 14 19  1  0  0  0  0
 14 27  1  0  0  0  0
 14 28  1  0  0  0  0
 14 29  1  0  0  0  0
 21 30  1  0  0  0  0
 21 35  1  0  0  0  0
 32 33  1  0  0  0  0
 32 36  1  0  0  0  0
 33 34  1  0  0  0  0
 33 37  1  0  0  0  0
 33 38  1  0  0  0  0
 34 35  1  0  0  0  0
 34 39  1  0  0  0  0
 34 40  1  0  0  0  0
 35 36  1  0  0  0  0
 35 41  1  1  0  0  0
 36 42  1  0  0  0  0
 36 43  1  0  0  0  0
M  END
$$$$
