3fly
                    3D
 Schrodinger Suite 2022-3.
 41 43  0  0  1  0  0  0  0  0999 V2000
   15.9540   10.5310   31.6900 C   0  0  0  0  0  0  0  0  0  0  0  0
   21.3670   12.5260   31.3010 C   0  0  0  0  0  0  0  0  0  0  0  0
   17.2480   11.0280   31.8160 C   0  0  0  0  0  0  0  0  0  0  0  0
   23.9450    8.4390   31.1000 C   0  0  0  0  0  0  0  0  0  0  0  0
   26.4110    8.4440   31.6230 C   0  0  0  0  0  0  0  0  0  0  0  0
   21.5200    9.7010   30.7590 C   0  0  0  0  0  0  0  0  0  0  0  0
   20.2480   10.3640   30.6900 C   0  0  0  0  0  0  0  0  0  0  0  0
   15.2730   10.8400   30.5070 C   0  0  0  0  0  0  0  0  0  0  0  0
   15.8270   11.6110   29.4830 C   0  0  0  0  0  0  0  0  0  0  0  0
   17.1230   12.1150   29.6390 C   0  0  0  0  0  0  0  0  0  0  0  0
   22.6780   10.4180   31.1790 C   0  0  0  0  0  0  0  0  0  0  0  0
   21.6960    8.3270   30.4410 C   0  0  0  0  0  0  0  0  0  0  0  0
   20.1850   11.6830   30.9850 C   0  0  0  0  0  0  0  0  0  0  0  0
   17.8270   11.8350   30.8140 C   0  0  0  0  0  0  0  0  0  0  0  0
   23.8330   12.5270   31.8420 C   0  0  0  0  0  0  0  0  0  0  0  0
   17.9640   10.7320   32.8930 F   0  0  0  0  0  0  0  0  0  0  0  0
   14.0450   10.3500   30.3430 F   0  0  0  0  0  0  0  0  0  0  0  0
   19.0480   12.4860   31.0300 O   0  0  0  0  0  0  0  0  0  0  0  0
   22.8620    7.6870   30.6000 N   0  0  0  0  0  0  0  0  0  0  0  0
   21.3620   13.7290   31.4530 O   0  0  0  0  0  0  0  0  0  0  0  0
   22.5990   11.7970   31.4370 N   0  0  0  0  0  0  0  0  0  0  0  0
   23.8910    9.7980   31.3380 N   0  0  0  0  0  0  0  0  0  0  0  0
   25.0920    7.7500   31.4300 N   0  0  0  0  0  0  0  0  0  0  0  0
   15.2730   11.8120   28.5640 H   0  0  0  0  0  0  0  0  0  0  0  0
   17.5760   12.7140   28.8430 H   0  0  0  0  0  0  0  0  0  0  0  0
   15.5100    9.9020   32.4620 H   0  0  0  0  0  0  0  0  0  0  0  0
   19.3750    9.7750   30.4060 H   0  0  0  0  0  0  0  0  0  0  0  0
   20.8510    7.7460   30.0380 H   0  0  0  0  0  0  0  0  0  0  0  0
   26.2390    9.4030   32.1870 H   0  0  0  0  0  0  0  0  0  0  0  0
   24.3090   12.0170   32.7240 H   0  0  0  0  0  0  0  0  0  0  0  0
   24.5730   12.5290   30.9960 H   0  0  0  0  0  0  0  0  0  0  0  0
   23.5870   13.5840   32.1180 H   0  0  0  0  0  0  0  0  0  0  0  0
   25.1860    6.7670   31.0950 H   0  0  0  0  0  0  0  0  0  0  0  0
   27.2970    7.5170   32.4650 C   0  0  0  0  0  0  0  0  0  0  0  0
   28.2550    8.0340   32.7010 H   0  0  0  0  0  0  0  0  0  0  0  0
   26.7900    7.2560   33.4220 H   0  0  0  0  0  0  0  0  0  0  0  0
   27.5300    6.5760   31.9160 H   0  0  0  0  0  0  0  0  0  0  0  0
   27.0420    8.7510   30.2560 C   0  0  0  0  0  0  0  0  0  0  0  0
   26.4630    9.5340   29.7210 H   0  0  0  0  0  0  0  0  0  0  0  0
   28.0810    9.1250   30.3990 H   0  0  0  0  0  0  0  0  0  0  0  0
   27.0740    7.8310   29.6330 H   0  0  0  0  0  0  0  0  0  0  0  0
  1  3  1  0  0  0  0
  1  8  2  0  0  0  0
  1 26  1  0  0  0  0
  2 13  1  0  0  0  0
  2 20  2  0  0  0  0
  2 21  1  0  0  0  0
  3 14  2  0  0  0  0
  3 16  1  0  0  0  0
  4 19  1  0  0  0  0
  4 22  2  0  0  0  0
  4 23  1  0  0  0  0
  5 23  1  0  0  0  0
  5 29  1  0  0  0  0
  5 34  1  0  0  0  0
  5 38  1  0  0  0  0
  6  7  1  0  0  0  0
  6 11  2  0  0  0  0
  6 12  1  0  0  0  0
  7 13  2  0  0  0  0
  7 27  1  0  0  0  0
  8  9  1  0  0  0  0
  8 17  1  0  0  0  0
  9 10  2  0  0  0  0
  9 24  1  0  0  0  0
 10 14  1  0  0  0  0
 10 25  1  0  0  0  0
 11 21  1  0  0  0  0
 11 22  1  0  0  0  0
 12 19  2  0  0  0  0
 12 28  1  0  0  0  0
 13 18  1  0  0  0  0
 14 18  1  0  0  0  0
 15 21  1  0  0  0  0
 15 30  1  0  0  0  0
 15 31  1  0  0  0  0
 15 32  1  0  0  0  0
 23 33  1  0  0  0  0
 34 35  1  0  0  0  0
 34 36  1  0  0  0  0
 34 37  1  0  0  0  0
 38 39  1  0  0  0  0
 38 40  1  0  0  0  0
 38 41  1  0  0  0  0
M  END
$$$$
