35
 OpenBabel02232411163D
Structure written by MMmdl.
 41 43  0  0  0  0  0  0  0  0999 V2000
    3.5200  -48.3770    7.1280 O   0  0  0  0  0  0  0  0  0  0  0  0
    3.1190  -49.3390    6.4590 C   0  0  0  0  0  0  0  0  0  0  0  0
    3.8200  -50.1800    5.8630 O   0  5  0  0  0  0  0  0  0  0  0  0
    1.5990  -49.5700    6.3540 C   0  0  0  0  0  0  0  0  0  0  0  0
   -0.3230  -50.8040    6.5160 C   0  0  0  0  0  0  0  0  0  0  0  0
   -1.2960  -51.7890    6.7540 C   0  0  0  0  0  0  0  0  0  0  0  0
   -2.6100  -51.4790    6.4370 C   0  0  0  0  0  0  0  0  0  0  0  0
   -2.9560  -50.2200    5.8900 C   0  0  0  0  0  0  0  0  0  0  0  0
   -2.0000  -49.2420    5.6540 C   0  0  0  0  0  0  0  0  0  0  0  0
   -0.6570  -49.5110    5.9700 C   0  0  0  0  0  0  0  0  0  0  0  0
    0.5730  -48.7520    5.8940 C   0  0  0  0  0  0  0  0  0  0  0  0
    0.6480  -47.3450    5.4180 C   0  0  0  0  0  0  0  0  0  0  0  0
    0.6070  -46.3260    6.5710 C   0  0  0  0  0  0  0  0  0  0  0  0
   -0.6990  -46.3520    7.3570 C   0  0  0  0  0  0  0  0  0  0  0  0
   -1.6870  -45.7610    6.4300 O   0  0  0  0  0  0  0  0  0  0  0  0
   -2.9450  -45.5420    6.8960 C   0  0  0  0  0  0  0  0  0  0  0  0
   -3.4330  -46.0040    8.1290 C   0  0  0  0  0  0  0  0  0  0  0  0
   -4.7500  -45.7100    8.5090 C   0  0  0  0  0  0  0  0  0  0  0  0
   -5.5420  -44.9560    7.6310 C   0  0  0  0  0  0  0  0  0  0  0  0
   -5.0620  -44.4890    6.4010 C   0  0  0  0  0  0  0  0  0  0  0  0
   -3.7620  -44.7860    6.0190 C   0  0  0  0  0  0  0  0  0  0  0  0
   -1.0370  -52.7590    7.1770 H   0  0  0  0  0  0  0  0  0  0  0  0
   -3.4000  -52.2100    6.6130 H   0  0  0  0  0  0  0  0  0  0  0  0
   -4.0030  -50.0270    5.6540 H   0  0  0  0  0  0  0  0  0  0  0  0
   -2.2940  -48.2790    5.2340 H   0  0  0  0  0  0  0  0  0  0  0  0
   -0.2290  -47.1420    4.7510 H   0  0  0  0  0  0  0  0  0  0  0  0
    1.5860  -47.1740    4.8370 H   0  0  0  0  0  0  0  0  0  0  0  0
    0.7360  -45.3000    6.1540 H   0  0  0  0  0  0  0  0  0  0  0  0
    1.4370  -46.5460    7.2870 H   0  0  0  0  0  0  0  0  0  0  0  0
   -0.6630  -45.6910    8.2490 H   0  0  0  0  0  0  0  0  0  0  0  0
   -1.0470  -47.3820    7.5830 H   0  0  0  0  0  0  0  0  0  0  0  0
   -2.8220  -46.6080    8.7950 H   0  0  0  0  0  0  0  0  0  0  0  0
   -3.3760  -44.4490    5.0610 H   0  0  0  0  0  0  0  0  0  0  0  0
    1.0630  -50.8150    6.7390 N   0  0  0  0  0  0  0  0  0  0  0  0
    1.5610  -51.6150    7.1100 H   0  0  0  0  0  0  0  0  0  0  0  0
   -5.7120  -43.9060    5.7410 H   0  0  0  0  0  0  0  0  0  0  0  0
   -7.1800  -44.6120    8.0580 Cl  0  0  0  0  0  0  0  0  0  0  0  0
   -5.2850  -46.1970    9.8140 C   0  0  0  0  0  0  0  0  0  0  0  0
   -5.8530  -45.3940   10.3420 H   0  0  0  0  0  0  0  0  0  0  0  0
   -5.9820  -47.0540    9.6390 H   0  0  0  0  0  0  0  0  0  0  0  0
   -4.4660  -46.5520   10.4800 H   0  0  0  0  0  0  0  0  0  0  0  0
  1  2  2  0  0  0  0
  2  3  1  0  0  0  0
  2  4  1  0  0  0  0
  4 11  2  0  0  0  0
  4 34  1  0  0  0  0
  5  6  2  0  0  0  0
  5 10  1  0  0  0  0
  5 34  1  0  0  0  0
  6  7  1  0  0  0  0
  6 22  1  0  0  0  0
  7  8  2  0  0  0  0
  7 23  1  0  0  0  0
  8  9  1  0  0  0  0
  8 24  1  0  0  0  0
  9 10  2  0  0  0  0
  9 25  1  0  0  0  0
 10 11  1  0  0  0  0
 11 12  1  0  0  0  0
 12 26  1  0  0  0  0
 12 27  1  0  0  0  0
 12 13  1  0  0  0  0
 13 14  1  0  0  0  0
 13 28  1  0  0  0  0
 13 29  1  0  0  0  0
 14 15  1  0  0  0  0
 14 30  1  0  0  0  0
 14 31  1  0  0  0  0
 15 16  1  0  0  0  0
 16 17  2  0  0  0  0
 16 21  1  0  0  0  0
 17 18  1  0  0  0  0
 17 32  1  0  0  0  0
 18 19  2  0  0  0  0
 18 38  1  0  0  0  0
 19 20  1  0  0  0  0
 19 37  1  0  0  0  0
 20 21  2  0  0  0  0
 20 36  1  0  0  0  0
 21 33  1  0  0  0  0
 34 35  1  0  0  0  0
 38 39  1  0  0  0  0
 38 40  1  0  0  0  0
 38 41  1  0  0  0  0
M  CHG  1   3  -1
M  END
$$$$
