18637-1
 OpenBabel02232411163D
Structure written by MMmdl.
 53 54  0  0  0  0  0  0  0  0999 V2000
   23.2220   10.8210   29.0790 C   0  0  0  0  0  0  0  0  0  0  0  0
   23.4820   11.0570   30.5520 C   0  0  0  0  0  0  0  0  0  0  0  0
   22.2100   11.1610   31.2980 O   0  0  0  0  0  0  0  0  0  0  0  0
   21.5450   10.0310   31.6320 C   0  0  0  0  0  0  0  0  0  0  0  0
   22.0030    8.8360   31.1950 N   0  0  0  0  0  0  0  0  0  0  0  0
   21.2470    7.7110   31.4920 C   0  0  0  0  0  0  0  0  0  0  0  0
   20.0880    7.7660   32.2600 C   0  0  0  0  0  0  0  0  0  0  0  0
   19.6320    9.0220   32.7400 C   0  0  0  0  0  0  0  0  0  0  0  0
   18.4860    9.0800   33.4930 N   0  0  0  0  0  0  0  0  0  0  0  0
   20.3640   10.2080   32.4130 C   0  0  0  0  0  0  0  0  0  0  0  0
   19.9740   11.5130   32.7810 C   0  0  0  0  0  0  0  0  0  0  0  0
   19.7020   12.6100   33.0420 N   0  0  0  0  0  0  0  0  0  0  0  0
   21.7970    6.5540   30.9040 N   0  0  0  0  0  0  0  0  0  0  0  0
   21.1930    5.2780   30.8040 C   0  0  0  0  0  0  0  0  0  0  0  0
   20.1120    5.0280   31.2920 O   0  0  0  0  0  0  0  0  0  0  0  0
   22.0070    4.2990   29.9670 C   0  0  0  0  0  0  0  0  0  0  0  0
   23.3330    3.9730   30.5850 C   0  0  0  0  0  0  0  0  0  0  0  0
   24.4600    4.8000   30.3840 C   0  0  0  0  0  0  0  0  0  0  0  0
   24.2060    5.8760   29.5500 O   0  0  0  0  0  0  0  0  0  0  0  0
   25.1970    6.9360   29.4530 C   0  0  0  0  0  0  0  0  0  0  0  0
   25.7050    4.5300   30.9680 C   0  0  0  0  0  0  0  0  0  0  0  0
   25.8560    3.3920   31.7650 C   0  0  0  0  0  0  0  0  0  0  0  0
   24.7200    2.5470   31.9670 C   0  0  0  0  0  0  0  0  0  0  0  0
   23.4900    2.8290   31.3810 C   0  0  0  0  0  0  0  0  0  0  0  0
   24.9610    1.4920   32.8360 O   0  0  0  0  0  0  0  0  0  0  0  0
   24.1450    0.3030   32.6710 C   0  0  0  0  0  0  0  0  0  0  0  0
   27.0750    3.0500   32.4150 N   0  0  0  0  0  0  0  0  0  0  0  0
   28.3680    3.4940   32.0430 C   0  0  0  0  0  0  0  0  0  0  0  0
   28.5280    4.2170   31.0730 O   0  0  0  0  0  0  0  0  0  0  0  0
   29.4750    3.0060   32.9250 C   0  0  0  0  0  0  0  0  0  0  0  0
   22.8020    9.8040   28.9000 H   0  0  0  0  0  0  0  0  0  0  0  0
   22.5160   11.5760   28.6660 H   0  0  0  0  0  0  0  0  0  0  0  0
   24.1860   10.9050   28.5180 H   0  0  0  0  0  0  0  0  0  0  0  0
   23.8880   12.0780   30.7500 H   0  0  0  0  0  0  0  0  0  0  0  0
   24.1130   10.2580   31.0030 H   0  0  0  0  0  0  0  0  0  0  0  0
   19.5140    6.8640   32.4830 H   0  0  0  0  0  0  0  0  0  0  0  0
   18.1010    9.9690   33.8100 H   0  0  0  0  0  0  0  0  0  0  0  0
   17.9800    8.2150   33.7630 H   0  0  0  0  0  0  0  0  0  0  0  0
   22.7200    6.7000   30.4230 H   0  0  0  0  0  0  0  0  0  0  0  0
   21.4090    3.3610   29.8350 H   0  0  0  0  0  0  0  0  0  0  0  0
   22.1740    4.7610   28.9560 H   0  0  0  0  0  0  0  0  0  0  0  0
   25.4310    7.3400   30.4610 H   0  0  0  0  0  0  0  0  0  0  0  0
   26.0960    6.5570   28.9250 H   0  0  0  0  0  0  0  0  0  0  0  0
   24.6500    7.6880   28.8380 H   0  0  0  0  0  0  0  0  0  0  0  0
   26.5530    5.2000   30.7980 H   0  0  0  0  0  0  0  0  0  0  0  0
   22.6430    2.1580   31.5420 H   0  0  0  0  0  0  0  0  0  0  0  0
   24.7000   -0.4370   33.2960 H   0  0  0  0  0  0  0  0  0  0  0  0
   23.1300    0.4910   33.0810 H   0  0  0  0  0  0  0  0  0  0  0  0
   24.1210   -0.0100   31.6060 H   0  0  0  0  0  0  0  0  0  0  0  0
   27.0070    2.3120   33.1390 H   0  0  0  0  0  0  0  0  0  0  0  0
   30.0690    3.8760   33.3100 H   0  0  0  0  0  0  0  0  0  0  0  0
   30.1720    2.3490   32.3410 H   0  0  0  0  0  0  0  0  0  0  0  0
   29.1360    2.4190   33.8150 H   0  0  0  0  0  0  0  0  0  0  0  0
  1  2  1  0  0  0  0
  1 31  1  0  0  0  0
  1 32  1  0  0  0  0
  1 33  1  0  0  0  0
  2  3  1  0  0  0  0
  2 34  1  0  0  0  0
  2 35  1  0  0  0  0
  3  4  1  0  0  0  0
  4 10  2  0  0  0  0
  4  5  1  0  0  0  0
  5  6  2  0  0  0  0
  6  7  1  0  0  0  0
  6 13  1  0  0  0  0
  7  8  2  0  0  0  0
  7 36  1  0  0  0  0
  8  9  1  0  0  0  0
  8 10  1  0  0  0  0
  9 37  1  0  0  0  0
  9 38  1  0  0  0  0
 10 11  1  0  0  0  0
 11 12  3  0  0  0  0
 13 14  1  0  0  0  0
 13 39  1  0  0  0  0
 14 15  2  0  0  0  0
 14 16  1  0  0  0  0
 16 17  1  0  0  0  0
 16 40  1  0  0  0  0
 16 41  1  0  0  0  0
 17 24  2  0  0  0  0
 17 18  1  0  0  0  0
 18 19  1  0  0  0  0
 18 21  2  0  0  0  0
 19 20  1  0  0  0  0
 20 42  1  0  0  0  0
 20 43  1  0  0  0  0
 20 44  1  0  0  0  0
 21 22  1  0  0  0  0
 21 45  1  0  0  0  0
 22 23  2  0  0  0  0
 22 27  1  0  0  0  0
 23 24  1  0  0  0  0
 23 25  1  0  0  0  0
 24 46  1  0  0  0  0
 25 26  1  0  0  0  0
 26 47  1  0  0  0  0
 26 48  1  0  0  0  0
 26 49  1  0  0  0  0
 27 28  1  0  0  0  0
 27 50  1  0  0  0  0
 28 29  2  0  0  0  0
 28 30  1  0  0  0  0
 30 51  1  0  0  0  0
 30 52  1  0  0  0  0
 30 53  1  0  0  0  0
M  END
$$$$
