p38a_2t
 OpenBabel02232411163D
Structure written by MMmdl.
 47 50  0  0  0  0  0  0  0  0999 V2000
   36.3760   36.0970   15.7340 C   0  0  0  0  0  0  0  0  0  0  0  0
   34.5630   34.9440   21.1930 C   0  0  0  0  0  0  0  0  0  0  0  0
   35.7560   35.5970   16.8760 C   0  0  0  0  0  0  0  0  0  0  0  0
   33.9580   38.9590   23.8480 C   0  0  0  0  0  0  0  0  0  0  0  0
   34.7820   37.8050   21.4750 C   0  0  0  0  0  0  0  0  0  0  0  0
   35.2910   37.1700   20.2880 C   0  0  0  0  0  0  0  0  0  0  0  0
   37.6650   36.6180   15.9010 C   0  0  0  0  0  0  0  0  0  0  0  0
   38.3390   36.6300   17.1260 C   0  0  0  0  0  0  0  0  0  0  0  0
   37.6800   36.1590   18.2670 C   0  0  0  0  0  0  0  0  0  0  0  0
   34.2560   37.0200   22.5410 C   0  0  0  0  0  0  0  0  0  0  0  0
   34.7990   39.2140   21.6730 C   0  0  0  0  0  0  0  0  0  0  0  0
   35.2170   35.8240   20.1880 C   0  0  0  0  0  0  0  0  0  0  0  0
   36.3890   35.6400   18.1350 C   0  0  0  0  0  0  0  0  0  0  0  0
   34.5500   35.0510   16.8040 F   0  0  0  0  0  0  0  0  0  0  0  0
   35.7090   35.0000   19.1790 O   0  0  0  0  0  0  0  0  0  0  0  0
   34.4090   39.8040   22.8130 N   0  0  0  0  0  0  0  0  0  0  0  0
   34.3980   33.7500   21.0870 O   0  0  0  0  0  0  0  0  0  0  0  0
   34.1280   35.6230   22.3920 N   0  0  0  0  0  0  0  0  0  0  0  0
   33.8630   37.5810   23.7240 N   0  0  0  0  0  0  0  0  0  0  0  0
   33.5790   39.5300   25.0350 N   0  0  0  0  0  0  0  0  0  0  0  0
   35.8750   36.1040   14.7640 H   0  0  0  0  0  0  0  0  0  0  0  0
   35.7350   37.8040   19.5170 H   0  0  0  0  0  0  0  0  0  0  0  0
   39.3530   37.0290   17.2050 H   0  0  0  0  0  0  0  0  0  0  0  0
   38.1700   36.2230   19.2410 H   0  0  0  0  0  0  0  0  0  0  0  0
   35.1420   39.8750   20.8600 H   0  0  0  0  0  0  0  0  0  0  0  0
   33.6570   40.5550   25.1670 H   0  0  0  0  0  0  0  0  0  0  0  0
   38.2600   37.1600   14.8410 F   0  0  0  0  0  0  0  0  0  0  0  0
   33.1090   40.4160   28.1070 C   0  0  0  0  0  0  0  0  0  0  0  0
   32.2460   39.6120   27.1270 C   0  0  0  0  0  0  0  0  0  0  0  0
   33.0640   38.7100   26.1820 C   0  0  0  0  0  0  0  0  0  0  0  0
   34.2080   37.9950   26.9300 C   0  0  0  0  0  0  0  0  0  0  0  0
   34.9880   38.9420   27.8420 C   0  0  0  0  0  0  0  0  0  0  0  0
   34.1000   39.6060   28.7720 O   0  0  0  0  0  0  0  0  0  0  0  0
   32.4980   40.7950   28.9590 H   0  0  0  0  0  0  0  0  0  0  0  0
   33.6290   41.2480   27.5830 H   0  0  0  0  0  0  0  0  0  0  0  0
   31.6290   40.3230   26.5240 H   0  0  0  0  0  0  0  0  0  0  0  0
   31.5460   38.9510   27.6970 H   0  0  0  0  0  0  0  0  0  0  0  0
   32.3710   37.9270   25.7510 H   0  0  0  0  0  0  0  0  0  0  0  0
   33.7470   37.1740   27.5380 H   0  0  0  0  0  0  0  0  0  0  0  0
   34.9060   37.5180   26.2000 H   0  0  0  0  0  0  0  0  0  0  0  0
   35.6690   38.3870   28.5260 H   0  0  0  0  0  0  0  0  0  0  0  0
   35.5320   39.7130   27.2500 H   0  0  0  0  0  0  0  0  0  0  0  0
   33.5530   34.8040   23.5050 C   0  0  0  0  0  0  0  0  0  0  0  0
   33.1550   35.4710   24.3380 H   0  0  0  0  0  0  0  0  0  0  0  0
   32.6730   34.2040   23.1190 H   0  0  0  0  0  0  0  0  0  0  0  0
   34.5760   33.9120   24.0500 C   0  0  0  0  0  0  0  0  0  0  0  0
   35.3940   33.2060   24.4600 N   0  0  0  0  0  0  0  0  0  0  0  0
  1  3  2  0  0  0  0
  1  7  1  0  0  0  0
  1 21  1  0  0  0  0
  2 12  1  0  0  0  0
  2 17  2  0  0  0  0
  2 18  1  0  0  0  0
  3 13  1  0  0  0  0
  3 14  1  0  0  0  0
  4 16  2  0  0  0  0
  4 19  1  0  0  0  0
  4 20  1  0  0  0  0
  5  6  1  0  0  0  0
  5 10  1  0  0  0  0
  5 11  2  0  0  0  0
  6 12  2  0  0  0  0
  6 22  1  0  0  0  0
  7  8  2  0  0  0  0
  7 27  1  0  0  0  0
  8  9  1  0  0  0  0
  8 23  1  0  0  0  0
  9 13  2  0  0  0  0
  9 24  1  0  0  0  0
 10 18  1  0  0  0  0
 10 19  2  0  0  0  0
 11 16  1  0  0  0  0
 11 25  1  0  0  0  0
 12 15  1  0  0  0  0
 13 15  1  0  0  0  0
 18 43  1  0  0  0  0
 20 26  1  0  0  0  0
 20 30  1  0  0  0  0
 28 29  1  0  0  0  0
 28 33  1  0  0  0  0
 28 34  1  0  0  0  0
 28 35  1  0  0  0  0
 29 30  1  0  0  0  0
 29 36  1  0  0  0  0
 29 37  1  0  0  0  0
 30 31  1  0  0  0  0
 30 38  1  0  0  0  0
 31 32  1  0  0  0  0
 31 39  1  0  0  0  0
 31 40  1  0  0  0  0
 32 33  1  0  0  0  0
 32 41  1  0  0  0  0
 32 42  1  0  0  0  0
 43 44  1  0  0  0  0
 43 45  1  0  0  0  0
 43 46  1  0  0  0  0
 46 47  3  0  0  0  0
M  END
$$$$
