p38a_3flw
 OpenBabel02232411163D
Structure written by MMmdl.
 49 51  0  0  0  0  0  0  0  0999 V2000
   36.3570   36.0130   15.8270 C   0  0  0  0  0  0  0  0  0  0  0  0
   37.6480   36.5200   16.0250 C   0  0  0  0  0  0  0  0  0  0  0  0
   33.0020   39.9470   27.4860 C   0  0  0  0  0  0  0  0  0  0  0  0
   34.3170   40.5010   28.0520 C   0  0  0  0  0  0  0  0  0  0  0  0
   31.8070   38.5050   25.7770 C   0  0  0  0  0  0  0  0  0  0  0  0
   34.0590   34.9050   23.8730 C   0  0  0  0  0  0  0  0  0  0  0  0
   34.4790   35.0240   16.8590 F   0  0  0  0  0  0  0  0  0  0  0  0
   35.6920   35.5500   16.9580 C   0  0  0  0  0  0  0  0  0  0  0  0
   38.2820   37.0400   14.9760 F   0  0  0  0  0  0  0  0  0  0  0  0
   38.2840   36.5410   17.2690 C   0  0  0  0  0  0  0  0  0  0  0  0
   37.5820   36.1030   18.3970 C   0  0  0  0  0  0  0  0  0  0  0  0
   36.2840   35.6110   18.2360 C   0  0  0  0  0  0  0  0  0  0  0  0
   35.5370   35.0230   19.2650 O   0  0  0  0  0  0  0  0  0  0  0  0
   35.1970   35.8540   20.3280 C   0  0  0  0  0  0  0  0  0  0  0  0
   35.2910   37.2020   20.3960 C   0  0  0  0  0  0  0  0  0  0  0  0
   34.9080   37.8590   21.6190 C   0  0  0  0  0  0  0  0  0  0  0  0
   34.8870   39.2700   21.7670 C   0  0  0  0  0  0  0  0  0  0  0  0
   34.5590   39.8800   22.9180 N   0  0  0  0  0  0  0  0  0  0  0  0
   34.6400   35.0020   21.4170 C   0  0  0  0  0  0  0  0  0  0  0  0
   34.3640   33.8270   21.3150 O   0  0  0  0  0  0  0  0  0  0  0  0
   34.4320   35.6900   22.6630 N   0  0  0  0  0  0  0  0  0  0  0  0
   34.5320   37.0870   22.7590 C   0  0  0  0  0  0  0  0  0  0  0  0
   34.2230   37.6790   23.9580 N   0  0  0  0  0  0  0  0  0  0  0  0
   34.2490   39.0550   24.0140 C   0  0  0  0  0  0  0  0  0  0  0  0
   33.9870   39.6850   25.2250 N   0  0  0  0  0  0  0  0  0  0  0  0
   33.1880   38.9910   26.2890 C   0  0  0  0  0  0  0  0  0  0  0  0
   31.1700   39.4460   24.7490 C   0  0  0  0  0  0  0  0  0  0  0  0
   29.8400   38.9990   24.4440 O   0  0  0  0  0  0  0  0  0  0  0  0
   34.0710   41.2200   29.2760 O   0  0  0  0  0  0  0  0  0  0  0  0
   35.8900   36.0070   14.8390 H   0  0  0  0  0  0  0  0  0  0  0  0
   32.4750   39.3820   28.2950 H   0  0  0  0  0  0  0  0  0  0  0  0
   32.3600   40.8050   27.1800 H   0  0  0  0  0  0  0  0  0  0  0  0
   35.0100   39.6860   28.3600 H   0  0  0  0  0  0  0  0  0  0  0  0
   34.7970   41.2040   27.3320 H   0  0  0  0  0  0  0  0  0  0  0  0
   31.9320   37.4900   25.3230 H   0  0  0  0  0  0  0  0  0  0  0  0
   31.1210   38.3850   26.6500 H   0  0  0  0  0  0  0  0  0  0  0  0
   34.7570   35.1530   24.7200 H   0  0  0  0  0  0  0  0  0  0  0  0
   33.0140   35.1620   24.1950 H   0  0  0  0  0  0  0  0  0  0  0  0
   34.1230   33.8070   23.6580 H   0  0  0  0  0  0  0  0  0  0  0  0
   39.3040   36.9220   17.3690 H   0  0  0  0  0  0  0  0  0  0  0  0
   38.0450   36.1720   19.3830 H   0  0  0  0  0  0  0  0  0  0  0  0
   35.6550   37.8200   19.5720 H   0  0  0  0  0  0  0  0  0  0  0  0
   35.1250   39.9150   20.9050 H   0  0  0  0  0  0  0  0  0  0  0  0
   33.8530   40.7190   25.2020 H   0  0  0  0  0  0  0  0  0  0  0  0
   33.7850   38.0960   26.6250 H   0  0  0  0  0  0  0  0  0  0  0  0
   31.1420   40.4930   25.1220 H   0  0  0  0  0  0  0  0  0  0  0  0
   31.6760   39.3770   23.7610 H   0  0  0  0  0  0  0  0  0  0  0  0
   29.2010   39.5160   24.9950 H   0  0  0  0  0  0  0  0  0  0  0  0
   33.3460   41.9020   29.0930 H   0  0  0  0  0  0  0  0  0  0  0  0
  1  2  2  0  0  0  0
  1  8  1  0  0  0  0
  1 30  1  0  0  0  0
  2  9  1  0  0  0  0
  2 10  1  0  0  0  0
  3  4  1  0  0  0  0
  3 26  1  0  0  0  0
  3 31  1  0  0  0  0
  3 32  1  0  0  0  0
  4 29  1  0  0  0  0
  4 33  1  0  0  0  0
  4 34  1  0  0  0  0
  5 26  1  0  0  0  0
  5 27  1  0  0  0  0
  5 35  1  0  0  0  0
  5 36  1  0  0  0  0
  6 21  1  0  0  0  0
  6 37  1  0  0  0  0
  6 38  1  0  0  0  0
  6 39  1  0  0  0  0
  7  8  1  0  0  0  0
  8 12  2  0  0  0  0
 10 11  2  0  0  0  0
 10 40  1  0  0  0  0
 11 12  1  0  0  0  0
 11 41  1  0  0  0  0
 12 13  1  0  0  0  0
 13 14  1  0  0  0  0
 14 15  2  0  0  0  0
 14 19  1  0  0  0  0
 15 16  1  0  0  0  0
 15 42  1  0  0  0  0
 16 17  2  0  0  0  0
 16 22  1  0  0  0  0
 17 18  1  0  0  0  0
 17 43  1  0  0  0  0
 18 24  2  0  0  0  0
 19 20  2  0  0  0  0
 19 21  1  0  0  0  0
 21 22  1  0  0  0  0
 22 23  2  0  0  0  0
 23 24  1  0  0  0  0
 24 25  1  0  0  0  0
 25 26  1  0  0  0  0
 25 44  1  0  0  0  0
 26 45  1  0  0  0  0
 27 28  1  0  0  0  0
 27 46  1  0  0  0  0
 27 47  1  0  0  0  0
 28 48  1  0  0  0  0
 29 49  1  0  0  0  0
M  END
$$$$
