p38a_3flw
 OpenBabel02232411163D
Structure written by MMmdl.
 49 51  0  0  0  0  0  0  0  0999 V2000
   38.2760   36.5410   17.1470 C   0  0  0  0  0  0  0  0  0  0  0  0
   37.6410   36.7070   15.9090 C   0  0  0  0  0  0  0  0  0  0  0  0
   33.5450   39.9430   27.4870 C   0  0  0  0  0  0  0  0  0  0  0  0
   34.9580   40.4000   27.8810 C   0  0  0  0  0  0  0  0  0  0  0  0
   32.0240   38.6940   25.8620 C   0  0  0  0  0  0  0  0  0  0  0  0
   34.2480   35.0090   23.7430 C   0  0  0  0  0  0  0  0  0  0  0  0
   38.0020   35.9420   19.4060 F   0  0  0  0  0  0  0  0  0  0  0  0
   37.4800   36.0860   18.1950 C   0  0  0  0  0  0  0  0  0  0  0  0
   38.3500   37.2090   14.9010 F   0  0  0  0  0  0  0  0  0  0  0  0
   36.2930   36.4150   15.6890 C   0  0  0  0  0  0  0  0  0  0  0  0
   35.5170   35.9470   16.7550 C   0  0  0  0  0  0  0  0  0  0  0  0
   36.1160   35.7770   18.0060 C   0  0  0  0  0  0  0  0  0  0  0  0
   35.3700   35.1650   19.0240 O   0  0  0  0  0  0  0  0  0  0  0  0
   35.0710   35.9750   20.1180 C   0  0  0  0  0  0  0  0  0  0  0  0
   35.1000   37.3260   20.1690 C   0  0  0  0  0  0  0  0  0  0  0  0
   34.8090   37.9760   21.4180 C   0  0  0  0  0  0  0  0  0  0  0  0
   34.7630   39.3860   21.5660 C   0  0  0  0  0  0  0  0  0  0  0  0
   34.5310   39.9890   22.7440 N   0  0  0  0  0  0  0  0  0  0  0  0
   34.6640   35.1030   21.2530 C   0  0  0  0  0  0  0  0  0  0  0  0
   34.4680   33.9100   21.1900 O   0  0  0  0  0  0  0  0  0  0  0  0
   34.5040   35.7950   22.5040 N   0  0  0  0  0  0  0  0  0  0  0  0
   34.5610   37.1950   22.5870 C   0  0  0  0  0  0  0  0  0  0  0  0
   34.3430   37.7830   23.8090 N   0  0  0  0  0  0  0  0  0  0  0  0
   34.3410   39.1580   23.8610 C   0  0  0  0  0  0  0  0  0  0  0  0
   34.1790   39.7850   25.0930 N   0  0  0  0  0  0  0  0  0  0  0  0
   33.4880   39.0680   26.2150 C   0  0  0  0  0  0  0  0  0  0  0  0
   31.3510   39.6550   24.8760 C   0  0  0  0  0  0  0  0  0  0  0  0
   30.0240   39.1800   24.5900 O   0  0  0  0  0  0  0  0  0  0  0  0
   35.1790   41.7850   27.5380 O   0  0  0  0  0  0  0  0  0  0  0  0
   39.3310   36.7930   17.2920 H   0  0  0  0  0  0  0  0  0  0  0  0
   33.1210   39.3320   28.3260 H   0  0  0  0  0  0  0  0  0  0  0  0
   32.8970   40.8450   27.3640 H   0  0  0  0  0  0  0  0  0  0  0  0
   35.0910   40.3870   28.9880 H   0  0  0  0  0  0  0  0  0  0  0  0
   35.7420   39.7960   27.3700 H   0  0  0  0  0  0  0  0  0  0  0  0
   32.0190   37.6630   25.4240 H   0  0  0  0  0  0  0  0  0  0  0  0
   31.4250   38.6460   26.8040 H   0  0  0  0  0  0  0  0  0  0  0  0
   35.0040   35.2750   24.5310 H   0  0  0  0  0  0  0  0  0  0  0  0
   33.2250   35.2460   24.1460 H   0  0  0  0  0  0  0  0  0  0  0  0
   34.3130   33.9110   23.5280 H   0  0  0  0  0  0  0  0  0  0  0  0
   35.8340   36.5630   14.7100 H   0  0  0  0  0  0  0  0  0  0  0  0
   34.4540   35.7340   16.6030 H   0  0  0  0  0  0  0  0  0  0  0  0
   35.3480   37.9490   19.3060 H   0  0  0  0  0  0  0  0  0  0  0  0
   34.8990   40.0350   20.6860 H   0  0  0  0  0  0  0  0  0  0  0  0
   33.9890   40.8090   25.0800 H   0  0  0  0  0  0  0  0  0  0  0  0
   34.0600   38.1170   26.4140 H   0  0  0  0  0  0  0  0  0  0  0  0
   31.3150   40.6870   25.2870 H   0  0  0  0  0  0  0  0  0  0  0  0
   31.8340   39.6260   23.8750 H   0  0  0  0  0  0  0  0  0  0  0  0
   29.3710   39.7880   25.0310 H   0  0  0  0  0  0  0  0  0  0  0  0
   34.7080   41.9550   26.6710 H   0  0  0  0  0  0  0  0  0  0  0  0
  1  2  2  0  0  0  0
  1  8  1  0  0  0  0
  1 30  1  0  0  0  0
  2  9  1  0  0  0  0
  2 10  1  0  0  0  0
  3  4  1  0  0  0  0
  3 26  1  0  0  0  0
  3 31  1  0  0  0  0
  3 32  1  0  0  0  0
  4 29  1  0  0  0  0
  4 33  1  0  0  0  0
  4 34  1  0  0  0  0
  5 26  1  0  0  0  0
  5 27  1  0  0  0  0
  5 35  1  0  0  0  0
  5 36  1  0  0  0  0
  6 21  1  0  0  0  0
  6 37  1  0  0  0  0
  6 38  1  0  0  0  0
  6 39  1  0  0  0  0
  7  8  1  0  0  0  0
  8 12  2  0  0  0  0
 10 11  2  0  0  0  0
 10 40  1  0  0  0  0
 11 12  1  0  0  0  0
 11 41  1  0  0  0  0
 12 13  1  0  0  0  0
 13 14  1  0  0  0  0
 14 15  2  0  0  0  0
 14 19  1  0  0  0  0
 15 16  1  0  0  0  0
 15 42  1  0  0  0  0
 16 17  2  0  0  0  0
 16 22  1  0  0  0  0
 17 18  1  0  0  0  0
 17 43  1  0  0  0  0
 18 24  2  0  0  0  0
 19 20  2  0  0  0  0
 19 21  1  0  0  0  0
 21 22  1  0  0  0  0
 22 23  2  0  0  0  0
 23 24  1  0  0  0  0
 24 25  1  0  0  0  0
 25 26  1  0  0  0  0
 25 44  1  0  0  0  0
 26 45  1  0  0  0  0
 27 28  1  0  0  0  0
 27 46  1  0  0  0  0
 27 47  1  0  0  0  0
 28 48  1  0  0  0  0
 29 49  1  0  0  0  0
M  END
$$$$
