1oi9
 OpenBabel02232411153D
Structure written by MMmdl.
 46 49  0  0  0  0  0  0  0  0999 V2000
    1.5800   28.8560    6.8280 C   0  0  0  0  0  0  0  0  0  0  0  0
   -1.7570   31.5950    8.0830 C   0  0  0  0  0  0  0  0  0  0  0  0
   -0.4850   26.0220    8.8630 C   0  0  0  0  0  0  0  0  0  0  0  0
   -1.1230   25.3220   10.0680 C   0  0  0  0  0  0  0  0  0  0  0  0
   -0.8880   23.8050    9.8710 C   0  0  0  0  0  0  0  0  0  0  0  0
   -1.3480   22.9940   11.0900 C   0  0  0  0  0  0  0  0  0  0  0  0
   -0.7040   23.5080   12.3870 C   0  0  0  0  0  0  0  0  0  0  0  0
   -0.9940   25.0040   12.5890 C   0  0  0  0  0  0  0  0  0  0  0  0
   -0.5070   25.8270   11.3870 C   0  0  0  0  0  0  0  0  0  0  0  0
    5.2950   25.6510    6.4980 C   0  0  0  0  0  0  0  0  0  0  0  0
    5.0730   25.1800    7.8060 C   0  0  0  0  0  0  0  0  0  0  0  0
    4.0330   25.6820    8.5940 C   0  0  0  0  0  0  0  0  0  0  0  0
    3.2710   26.7460    8.1230 C   0  0  0  0  0  0  0  0  0  0  0  0
    0.8030   27.9230    7.5140 N   0  0  0  0  0  0  0  0  0  0  0  0
   -0.3500   28.2980    8.1140 C   0  0  0  0  0  0  0  0  0  0  0  0
   -1.0400   27.4030    8.8420 O   0  0  0  0  0  0  0  0  0  0  0  0
   -0.8050   29.6360    7.9890 C   0  0  0  0  0  0  0  0  0  0  0  0
   -1.9080   30.3330    8.4910 N   0  0  0  0  0  0  0  0  0  0  0  0
   -0.5540   31.7780    7.3120 N   0  0  0  0  0  0  0  0  0  0  0  0
    0.0560   30.5310    7.2290 C   0  0  0  0  0  0  0  0  0  0  0  0
    1.2360   30.1800    6.6200 N   0  0  0  0  0  0  0  0  0  0  0  0
    2.7820   28.3890    6.3020 N   0  0  0  0  0  0  0  0  0  0  0  0
    3.5030   27.2620    6.8380 C   0  0  0  0  0  0  0  0  0  0  0  0
    4.5050   26.6920    6.0200 C   0  0  0  0  0  0  0  0  0  0  0  0
   -2.4160   32.4290    8.3030 H   0  0  0  0  0  0  0  0  0  0  0  0
    0.6210   26.0660    8.9750 H   0  0  0  0  0  0  0  0  0  0  0  0
   -0.7860   25.5720    7.8950 H   0  0  0  0  0  0  0  0  0  0  0  0
   -2.2210   25.5180   10.0990 H   0  0  0  0  0  0  0  0  0  0  0  0
   -1.4490   23.4610    8.9750 H   0  0  0  0  0  0  0  0  0  0  0  0
    0.2020   23.6160    9.7120 H   0  0  0  0  0  0  0  0  0  0  0  0
   -2.4530   23.0690   11.1870 H   0  0  0  0  0  0  0  0  0  0  0  0
   -1.0750   21.9220   10.9470 H   0  0  0  0  0  0  0  0  0  0  0  0
   -1.1030   22.9320   13.2520 H   0  0  0  0  0  0  0  0  0  0  0  0
    0.3990   23.3540   12.3310 H   0  0  0  0  0  0  0  0  0  0  0  0
   -2.0880   25.1540   12.7370 H   0  0  0  0  0  0  0  0  0  0  0  0
   -0.4700   25.3560   13.5060 H   0  0  0  0  0  0  0  0  0  0  0  0
    0.6070   25.7500   11.3410 H   0  0  0  0  0  0  0  0  0  0  0  0
   -0.7810   26.8960   11.5390 H   0  0  0  0  0  0  0  0  0  0  0  0
    6.0800   25.2240    5.8700 H   0  0  0  0  0  0  0  0  0  0  0  0
    3.8140   25.2510    9.5680 H   0  0  0  0  0  0  0  0  0  0  0  0
    2.5080   27.1620    8.7830 H   0  0  0  0  0  0  0  0  0  0  0  0
   -0.2550   32.6460    6.8430 H   0  0  0  0  0  0  0  0  0  0  0  0
    3.3900   29.0510    5.7690 H   0  0  0  0  0  0  0  0  0  0  0  0
    4.6780   27.0830    5.0130 H   0  0  0  0  0  0  0  0  0  0  0  0
    5.9670   24.2550    8.2950 O   0  0  0  0  0  0  0  0  0  0  0  0
    5.7310   24.0480    9.3080 H   0  0  0  0  0  0  0  0  0  0  0  0
  1 14  2  0  0  0  0
  1 21  1  0  0  0  0
  1 22  1  0  0  0  0
  2 18  2  0  0  0  0
  2 19  1  0  0  0  0
  2 25  1  0  0  0  0
  3  4  1  0  0  0  0
  3 16  1  0  0  0  0
  3 26  1  0  0  0  0
  3 27  1  0  0  0  0
  4  5  1  0  0  0  0
  4  9  1  0  0  0  0
  4 28  1  0  0  0  0
  5  6  1  0  0  0  0
  5 29  1  0  0  0  0
  5 30  1  0  0  0  0
  6  7  1  0  0  0  0
  6 31  1  0  0  0  0
  6 32  1  0  0  0  0
  7  8  1  0  0  0  0
  7 33  1  0  0  0  0
  7 34  1  0  0  0  0
  8  9  1  0  0  0  0
  8 35  1  0  0  0  0
  8 36  1  0  0  0  0
  9 37  1  0  0  0  0
  9 38  1  0  0  0  0
 10 11  2  0  0  0  0
 10 24  1  0  0  0  0
 10 39  1  0  0  0  0
 11 12  1  0  0  0  0
 11 45  1  0  0  0  0
 12 13  2  0  0  0  0
 12 40  1  0  0  0  0
 13 23  1  0  0  0  0
 13 41  1  0  0  0  0
 14 15  1  0  0  0  0
 15 16  1  0  0  0  0
 15 17  2  0  0  0  0
 17 18  1  0  0  0  0
 17 20  1  0  0  0  0
 19 20  1  0  0  0  0
 19 42  1  0  0  0  0
 20 21  2  0  0  0  0
 22 23  1  0  0  0  0
 22 43  1  0  0  0  0
 23 24  2  0  0  0  0
 24 44  1  0  0  0  0
 45 46  1  0  0  0  0
M  END
$$$$
