p38a_2f
 OpenBabel02232411163D
Structure written by MMmdl.
 46 49  0  0  0  0  0  0  0  0999 V2000
   32.4380   39.8660   27.3070 C   0  0  0  0  0  0  0  0  0  0  0  0
   32.2890   39.2210   28.6900 C   0  0  0  0  0  0  0  0  0  0  0  0
   34.5780   38.4500   28.6810 C   0  0  0  0  0  0  0  0  0  0  0  0
   34.8410   39.0550   27.2960 C   0  0  0  0  0  0  0  0  0  0  0  0
   37.8860   36.0930   17.4310 C   0  0  0  0  0  0  0  0  0  0  0  0
   33.5510   39.1760   29.3950 O   0  0  0  0  0  0  0  0  0  0  0  0
   34.4040   35.0740   21.5380 C   0  0  0  0  0  0  0  0  0  0  0  0
   37.0640   35.8300   18.5300 C   0  0  0  0  0  0  0  0  0  0  0  0
   34.0550   39.2010   24.0400 C   0  0  0  0  0  0  0  0  0  0  0  0
   33.5210   39.1190   26.4980 C   0  0  0  0  0  0  0  0  0  0  0  0
   34.5560   37.9530   21.6330 C   0  0  0  0  0  0  0  0  0  0  0  0
   34.7890   37.2770   20.3900 C   0  0  0  0  0  0  0  0  0  0  0  0
   37.4330   36.0810   16.1090 C   0  0  0  0  0  0  0  0  0  0  0  0
   36.0840   35.7900   15.8750 C   0  0  0  0  0  0  0  0  0  0  0  0
   35.2190   35.5070   16.9340 C   0  0  0  0  0  0  0  0  0  0  0  0
   34.2840   37.2030   22.8170 C   0  0  0  0  0  0  0  0  0  0  0  0
   34.5630   39.3700   21.7550 C   0  0  0  0  0  0  0  0  0  0  0  0
   34.7250   35.9230   20.3640 C   0  0  0  0  0  0  0  0  0  0  0  0
   35.7250   35.5410   18.2400 C   0  0  0  0  0  0  0  0  0  0  0  0
   33.9920   35.0490   24.0340 C   0  0  0  0  0  0  0  0  0  0  0  0
   37.4370   35.8840   19.5520 H   0  0  0  0  0  0  0  0  0  0  0  0
   34.8180   35.1300   19.2230 O   0  0  0  0  0  0  0  0  0  0  0  0
   34.3270   40.0050   22.9110 N   0  0  0  0  0  0  0  0  0  0  0  0
   34.2710   33.8690   21.5280 O   0  0  0  0  0  0  0  0  0  0  0  0
   34.2400   35.8010   22.7720 N   0  0  0  0  0  0  0  0  0  0  0  0
   34.0500   37.8190   24.0200 N   0  0  0  0  0  0  0  0  0  0  0  0
   33.7260   39.8430   25.2080 N   0  0  0  0  0  0  0  0  0  0  0  0
   31.4660   39.8180   26.7620 H   0  0  0  0  0  0  0  0  0  0  0  0
   32.7240   40.9390   27.4240 H   0  0  0  0  0  0  0  0  0  0  0  0
   31.6650   39.8520   29.3640 H   0  0  0  0  0  0  0  0  0  0  0  0
   31.8830   38.1870   28.6050 H   0  0  0  0  0  0  0  0  0  0  0  0
   34.2710   37.3810   28.5960 H   0  0  0  0  0  0  0  0  0  0  0  0
   35.4610   38.5700   29.3490 H   0  0  0  0  0  0  0  0  0  0  0  0
   35.2720   40.0800   27.4020 H   0  0  0  0  0  0  0  0  0  0  0  0
   35.5800   38.4180   26.7530 H   0  0  0  0  0  0  0  0  0  0  0  0
   39.1690   36.3670   17.6570 F   0  0  0  0  0  0  0  0  0  0  0  0
   33.1620   38.0730   26.2810 H   0  0  0  0  0  0  0  0  0  0  0  0
   35.0110   37.8770   19.5030 H   0  0  0  0  0  0  0  0  0  0  0  0
   35.6950   35.8060   14.8540 H   0  0  0  0  0  0  0  0  0  0  0  0
   34.1620   35.3080   16.7440 H   0  0  0  0  0  0  0  0  0  0  0  0
   34.7630   39.9940   20.8680 H   0  0  0  0  0  0  0  0  0  0  0  0
   34.7700   35.3200   24.7990 H   0  0  0  0  0  0  0  0  0  0  0  0
   32.9830   35.3140   24.4510 H   0  0  0  0  0  0  0  0  0  0  0  0
   34.0340   33.9450   23.8440 H   0  0  0  0  0  0  0  0  0  0  0  0
   33.8140   40.8760   25.2720 H   0  0  0  0  0  0  0  0  0  0  0  0
   38.0910   36.3230   15.2770 H   0  0  0  0  0  0  0  0  0  0  0  0
  1  2  1  0  0  0  0
  1 10  1  0  0  0  0
  1 28  1  0  0  0  0
  1 29  1  0  0  0  0
  2  6  1  0  0  0  0
  2 30  1  0  0  0  0
  2 31  1  0  0  0  0
  3  4  1  0  0  0  0
  3  6  1  0  0  0  0
  3 32  1  0  0  0  0
  3 33  1  0  0  0  0
  4 10  1  0  0  0  0
  4 34  1  0  0  0  0
  4 35  1  0  0  0  0
  5  8  2  0  0  0  0
  5 13  1  0  0  0  0
  5 36  1  0  0  0  0
  7 18  1  0  0  0  0
  7 24  2  0  0  0  0
  7 25  1  0  0  0  0
  8 19  1  0  0  0  0
  8 21  1  0  0  0  0
  9 23  2  0  0  0  0
  9 26  1  0  0  0  0
  9 27  1  0  0  0  0
 10 27  1  0  0  0  0
 10 37  1  0  0  0  0
 11 12  1  0  0  0  0
 11 16  1  0  0  0  0
 11 17  2  0  0  0  0
 12 18  2  0  0  0  0
 12 38  1  0  0  0  0
 13 14  2  0  0  0  0
 13 46  1  0  0  0  0
 14 15  1  0  0  0  0
 14 39  1  0  0  0  0
 15 19  2  0  0  0  0
 15 40  1  0  0  0  0
 16 25  1  0  0  0  0
 16 26  2  0  0  0  0
 17 23  1  0  0  0  0
 17 41  1  0  0  0  0
 18 22  1  0  0  0  0
 19 22  1  0  0  0  0
 20 25  1  0  0  0  0
 20 42  1  0  0  0  0
 20 43  1  0  0  0  0
 20 44  1  0  0  0  0
 27 45  1  0  0  0  0
M  END
$$$$
