p38a_2o
 OpenBabel02232411163D
Structure written by MMmdl.
 55 58  0  0  0  0  0  0  0  0999 V2000
   36.3530   35.9780   15.8870 C   0  0  0  0  0  0  0  0  0  0  0  0
   34.2950   35.0080   21.2730 C   0  0  0  0  0  0  0  0  0  0  0  0
   35.7040   35.5030   17.0220 C   0  0  0  0  0  0  0  0  0  0  0  0
   33.8290   39.1130   23.7910 C   0  0  0  0  0  0  0  0  0  0  0  0
   34.6790   37.8560   21.4920 C   0  0  0  0  0  0  0  0  0  0  0  0
   35.2370   37.1540   20.3670 C   0  0  0  0  0  0  0  0  0  0  0  0
   37.6450   36.4870   16.0730 C   0  0  0  0  0  0  0  0  0  0  0  0
   38.2960   36.5020   17.3100 C   0  0  0  0  0  0  0  0  0  0  0  0
   37.6090   36.0510   18.4430 C   0  0  0  0  0  0  0  0  0  0  0  0
   33.9990   37.1380   22.5180 C   0  0  0  0  0  0  0  0  0  0  0  0
   34.7870   39.2620   21.6580 C   0  0  0  0  0  0  0  0  0  0  0  0
   35.0900   35.8120   20.3010 C   0  0  0  0  0  0  0  0  0  0  0  0
   36.3130   35.5500   18.2930 C   0  0  0  0  0  0  0  0  0  0  0  0
   34.4900   34.9750   16.9330 F   0  0  0  0  0  0  0  0  0  0  0  0
   35.6010   34.9450   19.3400 O   0  0  0  0  0  0  0  0  0  0  0  0
   34.3790   39.9030   22.7650 N   0  0  0  0  0  0  0  0  0  0  0  0
   34.0910   33.8190   21.1910 O   0  0  0  0  0  0  0  0  0  0  0  0
   33.7240   35.7650   22.3610 N   0  0  0  0  0  0  0  0  0  0  0  0
   33.5970   37.7570   23.6750 N   0  0  0  0  0  0  0  0  0  0  0  0
   33.4430   39.7590   24.9500 N   0  0  0  0  0  0  0  0  0  0  0  0
   35.8740   35.9780   14.9040 H   0  0  0  0  0  0  0  0  0  0  0  0
   35.7740   37.7390   19.6160 H   0  0  0  0  0  0  0  0  0  0  0  0
   39.3150   36.8890   17.4020 H   0  0  0  0  0  0  0  0  0  0  0  0
   38.0810   36.1140   19.4260 H   0  0  0  0  0  0  0  0  0  0  0  0
   35.2260   39.8760   20.8540 H   0  0  0  0  0  0  0  0  0  0  0  0
   33.6870   40.7630   25.0660 H   0  0  0  0  0  0  0  0  0  0  0  0
   38.2660   37.0150   15.0210 F   0  0  0  0  0  0  0  0  0  0  0  0
   32.1890   39.1470   28.5060 C   0  0  0  0  0  0  0  0  0  0  0  0
   32.2730   39.7880   27.1150 C   0  0  0  0  0  0  0  0  0  0  0  0
   33.2680   39.0080   26.2320 C   0  0  0  0  0  0  0  0  0  0  0  0
   34.6300   38.8540   26.9480 C   0  0  0  0  0  0  0  0  0  0  0  0
   34.4290   38.2760   28.3540 C   0  0  0  0  0  0  0  0  0  0  0  0
   33.4910   39.0580   29.1280 O   0  0  0  0  0  0  0  0  0  0  0  0
   31.7410   38.1280   28.4470 H   0  0  0  0  0  0  0  0  0  0  0  0
   31.6310   39.7970   29.2180 H   0  0  0  0  0  0  0  0  0  0  0  0
   32.6080   40.8470   27.2170 H   0  0  0  0  0  0  0  0  0  0  0  0
   31.2690   39.7740   26.6300 H   0  0  0  0  0  0  0  0  0  0  0  0
   32.8420   37.9930   26.0020 H   0  0  0  0  0  0  0  0  0  0  0  0
   35.2870   38.1690   26.3610 H   0  0  0  0  0  0  0  0  0  0  0  0
   35.1300   39.8500   27.0170 H   0  0  0  0  0  0  0  0  0  0  0  0
   34.0630   37.2250   28.3010 H   0  0  0  0  0  0  0  0  0  0  0  0
   35.3620   38.3560   28.9590 H   0  0  0  0  0  0  0  0  0  0  0  0
   32.7370   35.1010   23.2840 C   0  0  0  0  0  0  0  0  0  0  0  0
   31.9240   35.8560   23.4920 H   0  0  0  0  0  0  0  0  0  0  0  0
   32.3010   34.2240   22.7250 H   0  0  0  0  0  0  0  0  0  0  0  0
   33.3660   34.6370   24.5980 C   0  0  0  0  0  0  0  0  0  0  0  0
   34.1940   33.9080   24.3970 H   0  0  0  0  0  0  0  0  0  0  0  0
   33.8570   35.5210   25.1010 H   0  0  0  0  0  0  0  0  0  0  0  0
   32.1890   33.9250   25.7180 S   0  0  0  0  0  0  0  0  0  0  0  0
   32.8880   33.0850   26.7170 O   0  0  0  0  0  0  0  0  0  0  0  0
   31.2090   33.1150   24.9580 O   0  0  0  0  0  0  0  0  0  0  0  0
   31.4260   35.2780   26.4890 C   0  0  0  0  0  0  0  0  0  0  0  0
   31.1110   36.0790   25.7700 H   0  0  0  0  0  0  0  0  0  0  0  0
   30.4920   34.9960   27.0470 H   0  0  0  0  0  0  0  0  0  0  0  0
   32.0940   35.7670   27.2460 H   0  0  0  0  0  0  0  0  0  0  0  0
  1  3  2  0  0  0  0
  1  7  1  0  0  0  0
  1 21  1  0  0  0  0
  2 12  1  0  0  0  0
  2 17  2  0  0  0  0
  2 18  1  0  0  0  0
  3 13  1  0  0  0  0
  3 14  1  0  0  0  0
  4 16  2  0  0  0  0
  4 19  1  0  0  0  0
  4 20  1  0  0  0  0
  5  6  1  0  0  0  0
  5 10  1  0  0  0  0
  5 11  2  0  0  0  0
  6 12  2  0  0  0  0
  6 22  1  0  0  0  0
  7  8  2  0  0  0  0
  7 27  1  0  0  0  0
  8  9  1  0  0  0  0
  8 23  1  0  0  0  0
  9 13  2  0  0  0  0
  9 24  1  0  0  0  0
 10 18  1  0  0  0  0
 10 19  2  0  0  0  0
 11 16  1  0  0  0  0
 11 25  1  0  0  0  0
 12 15  1  0  0  0  0
 13 15  1  0  0  0  0
 18 43  1  0  0  0  0
 20 26  1  0  0  0  0
 20 30  1  0  0  0  0
 28 29  1  0  0  0  0
 28 33  1  0  0  0  0
 28 34  1  0  0  0  0
 28 35  1  0  0  0  0
 29 30  1  0  0  0  0
 29 36  1  0  0  0  0
 29 37  1  0  0  0  0
 30 31  1  0  0  0  0
 30 38  1  0  0  0  0
 31 32  1  0  0  0  0
 31 39  1  0  0  0  0
 31 40  1  0  0  0  0
 32 33  1  0  0  0  0
 32 41  1  0  0  0  0
 32 42  1  0  0  0  0
 43 44  1  0  0  0  0
 43 45  1  0  0  0  0
 43 46  1  0  0  0  0
 46 47  1  0  0  0  0
 46 48  1  0  0  0  0
 46 49  1  0  0  0  0
 49 50  2  0  0  0  0
 49 51  2  0  0  0  0
 49 52  1  0  0  0  0
 52 53  1  0  0  0  0
 52 54  1  0  0  0  0
 52 55  1  0  0  0  0
M  END
$$$$
