p38a_2f
 OpenBabel02232411163D
Structure written by MMmdl.
 46 49  0  0  0  0  0  0  0  0999 V2000
   33.5510   37.6400   26.5090 C   0  0  0  0  0  0  0  0  0  0  0  0
   32.4610   36.7670   25.8730 C   0  0  0  0  0  0  0  0  0  0  0  0
   31.0680   38.6830   25.4300 C   0  0  0  0  0  0  0  0  0  0  0  0
   31.9690   39.6060   26.2500 C   0  0  0  0  0  0  0  0  0  0  0  0
   36.8380   36.7170   15.6260 C   0  0  0  0  0  0  0  0  0  0  0  0
   31.1360   37.3390   25.9440 O   0  0  0  0  0  0  0  0  0  0  0  0
   34.6920   35.1480   20.8960 C   0  0  0  0  0  0  0  0  0  0  0  0
   35.8170   36.2550   16.4600 C   0  0  0  0  0  0  0  0  0  0  0  0
   34.2620   39.0460   23.7520 C   0  0  0  0  0  0  0  0  0  0  0  0
   33.4440   39.1440   26.2180 C   0  0  0  0  0  0  0  0  0  0  0  0
   34.7510   38.0060   21.2380 C   0  0  0  0  0  0  0  0  0  0  0  0
   35.0120   37.4430   19.9470 C   0  0  0  0  0  0  0  0  0  0  0  0
   38.1730   36.8180   16.0260 C   0  0  0  0  0  0  0  0  0  0  0  0
   38.4980   36.4780   17.3430 C   0  0  0  0  0  0  0  0  0  0  0  0
   37.5090   36.0550   18.2360 C   0  0  0  0  0  0  0  0  0  0  0  0
   34.5420   37.1570   22.3650 C   0  0  0  0  0  0  0  0  0  0  0  0
   34.6850   39.4090   21.4640 C   0  0  0  0  0  0  0  0  0  0  0  0
   34.9980   36.0960   19.8000 C   0  0  0  0  0  0  0  0  0  0  0  0
   36.1920   35.9430   17.7710 C   0  0  0  0  0  0  0  0  0  0  0  0
   34.4290   34.8670   23.3810 C   0  0  0  0  0  0  0  0  0  0  0  0
   34.7820   36.1800   16.1200 H   0  0  0  0  0  0  0  0  0  0  0  0
   35.1660   35.4290   18.5850 O   0  0  0  0  0  0  0  0  0  0  0  0
   34.4470   39.9390   22.6670 N   0  0  0  0  0  0  0  0  0  0  0  0
   34.5500   33.9510   20.7860 O   0  0  0  0  0  0  0  0  0  0  0  0
   34.5610   35.7640   22.1990 N   0  0  0  0  0  0  0  0  0  0  0  0
   34.3010   37.6770   23.6170 N   0  0  0  0  0  0  0  0  0  0  0  0
   34.1230   39.6580   24.9820 N   0  0  0  0  0  0  0  0  0  0  0  0
   33.5030   37.5260   27.6240 H   0  0  0  0  0  0  0  0  0  0  0  0
   34.5540   37.2590   26.1850 H   0  0  0  0  0  0  0  0  0  0  0  0
   32.6770   36.5670   24.8010 H   0  0  0  0  0  0  0  0  0  0  0  0
   32.3370   35.8200   26.4510 H   0  0  0  0  0  0  0  0  0  0  0  0
   29.9960   38.9430   25.5640 H   0  0  0  0  0  0  0  0  0  0  0  0
   31.3610   38.6870   24.3570 H   0  0  0  0  0  0  0  0  0  0  0  0
   31.8730   40.6510   25.8770 H   0  0  0  0  0  0  0  0  0  0  0  0
   31.6440   39.5970   27.3200 H   0  0  0  0  0  0  0  0  0  0  0  0
   36.5170   37.1450   14.4070 F   0  0  0  0  0  0  0  0  0  0  0  0
   34.0030   39.6910   27.0430 H   0  0  0  0  0  0  0  0  0  0  0  0
   35.2230   38.1210   19.1190 H   0  0  0  0  0  0  0  0  0  0  0  0
   39.5330   36.5770   17.6800 H   0  0  0  0  0  0  0  0  0  0  0  0
   37.7610   35.8550   19.2770 H   0  0  0  0  0  0  0  0  0  0  0  0
   34.8120   40.1050   20.6190 H   0  0  0  0  0  0  0  0  0  0  0  0
   34.9160   35.3310   24.2810 H   0  0  0  0  0  0  0  0  0  0  0  0
   33.3450   34.6830   23.6050 H   0  0  0  0  0  0  0  0  0  0  0  0
   34.9310   33.8860   23.1720 H   0  0  0  0  0  0  0  0  0  0  0  0
   34.0830   40.7060   24.9660 H   0  0  0  0  0  0  0  0  0  0  0  0
   38.9330   37.1860   15.3430 H   0  0  0  0  0  0  0  0  0  0  0  0
  1  2  1  0  0  0  0
  1 10  1  0  0  0  0
  1 28  1  0  0  0  0
  1 29  1  0  0  0  0
  2  6  1  0  0  0  0
  2 30  1  0  0  0  0
  2 31  1  0  0  0  0
  3  4  1  0  0  0  0
  3  6  1  0  0  0  0
  3 32  1  0  0  0  0
  3 33  1  0  0  0  0
  4 10  1  0  0  0  0
  4 34  1  0  0  0  0
  4 35  1  0  0  0  0
  5  8  2  0  0  0  0
  5 13  1  0  0  0  0
  5 36  1  0  0  0  0
  7 18  1  0  0  0  0
  7 24  2  0  0  0  0
  7 25  1  0  0  0  0
  8 19  1  0  0  0  0
  8 21  1  0  0  0  0
  9 23  2  0  0  0  0
  9 26  1  0  0  0  0
  9 27  1  0  0  0  0
 10 27  1  0  0  0  0
 10 37  1  0  0  0  0
 11 12  1  0  0  0  0
 11 16  1  0  0  0  0
 11 17  2  0  0  0  0
 12 18  2  0  0  0  0
 12 38  1  0  0  0  0
 13 14  2  0  0  0  0
 13 46  1  0  0  0  0
 14 15  1  0  0  0  0
 14 39  1  0  0  0  0
 15 19  2  0  0  0  0
 15 40  1  0  0  0  0
 16 25  1  0  0  0  0
 16 26  2  0  0  0  0
 17 23  1  0  0  0  0
 17 41  1  0  0  0  0
 18 22  1  0  0  0  0
 19 22  1  0  0  0  0
 20 25  1  0  0  0  0
 20 42  1  0  0  0  0
 20 43  1  0  0  0  0
 20 44  1  0  0  0  0
 27 45  1  0  0  0  0
M  END
$$$$
