23472
 OpenBabel02232411173D
Structure written by MMmdl.
 42 44  0  0  0  0  0  0  0  0999 V2000
   43.8230   17.5200   12.4360 O   0  0  0  0  0  0  0  0  0  0  0  0
   42.6470   17.2890   12.7570 C   0  0  0  0  0  0  0  0  0  0  0  0
   41.7600   18.1620   12.8500 O   0  5  0  0  0  0  0  0  0  0  0  0
   42.1770   15.8120   12.9940 C   0  0  0  0  0  0  0  0  0  0  0  0
   43.3190   15.0990   13.5680 O   0  0  0  0  0  0  0  0  0  0  0  0
   43.1680   14.6010   14.8250 C   0  0  0  0  0  0  0  0  0  0  0  0
   42.5210   13.3410   15.1290 C   0  0  0  0  0  0  0  0  0  0  0  0
   41.2980   12.5380   13.8980 Br  0  0  0  0  0  0  0  0  0  0  0  0
   42.8160   12.8260   16.3650 C   0  0  0  0  0  0  0  0  0  0  0  0
   42.5470   11.5590   17.0080 C   0  0  0  0  0  0  0  0  0  0  0  0
   43.4930   11.0260   17.9190 C   0  0  0  0  0  0  0  0  0  0  0  0
   43.2720    9.8030   18.5480 C   0  0  0  0  0  0  0  0  0  0  0  0
   42.1180    9.0570   18.2810 C   0  0  0  0  0  0  0  0  0  0  0  0
   41.1890    9.5660   17.3670 C   0  0  0  0  0  0  0  0  0  0  0  0
   40.0370    8.7450   17.0390 N   0  0  0  0  0  0  0  0  0  0  0  0
   38.5500    8.9500   17.8660 S   0  0  0  0  0  0  0  0  0  0  0  0
   38.7600    8.6780   19.2970 O   0  0  0  0  0  0  0  0  0  0  0  0
   38.0140   10.2950   17.6020 O   0  0  0  0  0  0  0  0  0  0  0  0
   37.5050    7.7710   17.1020 C   0  0  0  0  0  0  0  0  0  0  0  0
   37.0530    8.0030   15.7940 C   0  0  0  0  0  0  0  0  0  0  0  0
   36.1590    7.1190   15.1830 C   0  0  0  0  0  0  0  0  0  0  0  0
   35.7410    6.0010   15.9110 C   0  0  0  0  0  0  0  0  0  0  0  0
   34.8700    5.1630   15.3470 F   0  0  0  0  0  0  0  0  0  0  0  0
   36.2000    5.7230   17.1990 C   0  0  0  0  0  0  0  0  0  0  0  0
   37.0980    6.6230   17.7890 C   0  0  0  0  0  0  0  0  0  0  0  0
   41.3830   10.8130   16.7500 C   0  0  0  0  0  0  0  0  0  0  0  0
   43.7920   14.0080   17.2200 S   0  0  0  0  0  0  0  0  0  0  0  0
   43.8250   15.1350   15.9040 C   0  0  0  0  0  0  0  0  0  0  0  0
   44.5250   16.4920   16.0660 C   0  0  0  0  0  0  0  0  0  0  0  0
   43.8990   17.4990   15.7480 O   0  0  0  0  0  0  0  0  0  0  0  0
   45.6810   16.4250   16.5240 O   0  5  0  0  0  0  0  0  0  0  0  0
   41.2750   15.7260   13.6380 H   0  0  0  0  0  0  0  0  0  0  0  0
   41.9990   15.2790   12.0340 H   0  0  0  0  0  0  0  0  0  0  0  0
   44.4290   11.5480   18.1420 H   0  0  0  0  0  0  0  0  0  0  0  0
   44.0060    9.4040   19.2540 H   0  0  0  0  0  0  0  0  0  0  0  0
   41.9610    8.0900   18.7610 H   0  0  0  0  0  0  0  0  0  0  0  0
   39.9560    8.5580   16.0190 H   0  0  0  0  0  0  0  0  0  0  0  0
   37.3910    8.8740   15.2140 H   0  0  0  0  0  0  0  0  0  0  0  0
   35.8090    7.2960   14.1630 H   0  0  0  0  0  0  0  0  0  0  0  0
   35.8800    4.8290   17.7410 H   0  0  0  0  0  0  0  0  0  0  0  0
   37.4670    6.3880   18.7970 H   0  0  0  0  0  0  0  0  0  0  0  0
   40.6100   11.1780   16.0650 H   0  0  0  0  0  0  0  0  0  0  0  0
  1  2  2  0  0  0  0
  2  3  1  0  0  0  0
  2  4  1  0  0  0  0
  4  5  1  0  0  0  0
  4 32  1  0  0  0  0
  4 33  1  0  0  0  0
  5  6  1  0  0  0  0
  6 28  2  0  0  0  0
  6  7  1  0  0  0  0
  7  8  1  0  0  0  0
  7  9  2  0  0  0  0
  9 10  1  0  0  0  0
  9 27  1  0  0  0  0
 10 26  2  0  0  0  0
 10 11  1  0  0  0  0
 11 12  2  0  0  0  0
 11 34  1  0  0  0  0
 12 13  1  0  0  0  0
 12 35  1  0  0  0  0
 13 14  2  0  0  0  0
 13 36  1  0  0  0  0
 14 15  1  0  0  0  0
 14 26  1  0  0  0  0
 15 16  1  0  0  0  0
 15 37  1  0  0  0  0
 16 17  2  0  0  0  0
 16 18  2  0  0  0  0
 16 19  1  0  0  0  0
 19 25  2  0  0  0  0
 19 20  1  0  0  0  0
 20 21  2  0  0  0  0
 20 38  1  0  0  0  0
 21 22  1  0  0  0  0
 21 39  1  0  0  0  0
 22 23  1  0  0  0  0
 22 24  2  0  0  0  0
 24 25  1  0  0  0  0
 24 40  1  0  0  0  0
 25 41  1  0  0  0  0
 26 42  1  0  0  0  0
 27 28  1  0  0  0  0
 28 29  1  0  0  0  0
 29 30  2  0  0  0  0
 29 31  1  0  0  0  0
M  CHG  2   3  -1  31  -1
M  END
$$$$
