54
                    3D
 Schrodinger Suite 2022-3.
 44 47  0  0  1  0  0  0  0  0999 V2000
    3.3340  -47.8490    7.3010 O   0  0  0  0  0  0  0  0  0  0  0  0
    3.0580  -48.8720    6.6630 C   0  0  0  0  0  0  0  0  0  0  0  0
    3.8540  -49.6950    6.1720 O   0  5  0  0  0  0  0  0  0  0  0  0
    1.5690  -49.2030    6.4670 C   0  0  0  0  0  0  0  0  0  0  0  0
   -0.2560  -50.5760    6.5120 C   0  0  0  0  0  0  0  0  0  0  0  0
   -1.1600  -51.6420    6.6610 C   0  0  0  0  0  0  0  0  0  0  0  0
   -2.4650  -51.3600    6.3060 C   0  0  0  0  0  0  0  0  0  0  0  0
   -2.9200  -50.1160    5.8270 C   0  0  0  0  0  0  0  0  0  0  0  0
   -2.0190  -49.0700    5.6850 C   0  0  0  0  0  0  0  0  0  0  0  0
   -0.6740  -49.2830    6.0250 C   0  0  0  0  0  0  0  0  0  0  0  0
    0.5000  -48.4390    6.0170 C   0  0  0  0  0  0  0  0  0  0  0  0
    0.4490  -47.0120    5.6070 C   0  0  0  0  0  0  0  0  0  0  0  0
    0.3040  -46.0630    6.8090 C   0  0  0  0  0  0  0  0  0  0  0  0
   -0.9030  -46.3220    7.7030 C   0  0  0  0  0  0  0  0  0  0  0  0
   -2.0560  -45.7110    7.0070 O   0  0  0  0  0  0  0  0  0  0  0  0
   -3.2660  -45.7680    7.6330 C   0  0  0  0  0  0  0  0  0  0  0  0
   -5.8470  -45.6560    8.7460 C   0  0  0  0  0  0  0  0  0  0  0  0
   -4.8530  -46.3850    9.3510 C   0  0  0  0  0  0  0  0  0  0  0  0
   -3.5450  -46.4510    8.8030 C   0  0  0  0  0  0  0  0  0  0  0  0
   -0.8520  -52.6210    7.0300 H   0  0  0  0  0  0  0  0  0  0  0  0
   -3.6380  -52.6360    6.4150 Cl  0  0  0  0  0  0  0  0  0  0  0  0
   -3.9720  -49.9850    5.5720 H   0  0  0  0  0  0  0  0  0  0  0  0
   -2.3610  -48.1000    5.3180 H   0  0  0  0  0  0  0  0  0  0  0  0
   -0.4330  -46.8720    4.9330 H   0  0  0  0  0  0  0  0  0  0  0  0
    1.3730  -46.7290    5.0460 H   0  0  0  0  0  0  0  0  0  0  0  0
    0.2450  -45.0140    6.4390 H   0  0  0  0  0  0  0  0  0  0  0  0
    1.2120  -46.1880    7.4500 H   0  0  0  0  0  0  0  0  0  0  0  0
   -0.8110  -45.7810    8.6690 H   0  0  0  0  0  0  0  0  0  0  0  0
   -1.1310  -47.4030    7.8160 H   0  0  0  0  0  0  0  0  0  0  0  0
   -2.8120  -47.0540    9.3280 H   0  0  0  0  0  0  0  0  0  0  0  0
   -5.5960  -44.9860    7.5090 C   0  0  0  0  0  0  0  0  0  0  0  0
   -4.2960  -45.0260    6.9380 C   0  0  0  0  0  0  0  0  0  0  0  0
   -4.0610  -44.3990    5.6810 C   0  0  0  0  0  0  0  0  0  0  0  0
   -5.0790  -43.7520    5.0220 C   0  0  0  0  0  0  0  0  0  0  0  0
   -6.3850  -43.7230    5.5820 C   0  0  0  0  0  0  0  0  0  0  0  0
   -6.6380  -44.3170    6.7960 C   0  0  0  0  0  0  0  0  0  0  0  0
   -3.0660  -44.4630    5.2380 H   0  0  0  0  0  0  0  0  0  0  0  0
   -4.9000  -43.2660    4.0660 H   0  0  0  0  0  0  0  0  0  0  0  0
   -7.1820  -43.2300    5.0310 H   0  0  0  0  0  0  0  0  0  0  0  0
   -7.6410  -44.3040    7.2210 H   0  0  0  0  0  0  0  0  0  0  0  0
   -5.0610  -46.9380   10.2690 H   0  0  0  0  0  0  0  0  0  0  0  0
   -6.8430  -45.5990    9.1820 H   0  0  0  0  0  0  0  0  0  0  0  0
    1.1150  -50.5030    6.7750 N   0  0  0  0  0  0  0  0  0  0  0  0
    1.6640  -51.2860    7.1110 H   0  0  0  0  0  0  0  0  0  0  0  0
  1  2  2  0  0  0  0
  2  3  1  0  0  0  0
  2  4  1  0  0  0  0
  4 11  2  0  0  0  0
  4 43  1  0  0  0  0
  5  6  1  0  0  0  0
  5 10  2  0  0  0  0
  5 43  1  0  0  0  0
  6  7  2  0  0  0  0
  6 20  1  0  0  0  0
  7  8  1  0  0  0  0
  7 21  1  0  0  0  0
  8  9  2  0  0  0  0
  8 22  1  0  0  0  0
  9 10  1  0  0  0  0
  9 23  1  0  0  0  0
 10 11  1  0  0  0  0
 11 12  1  0  0  0  0
 12 24  1  0  0  0  0
 12 25  1  0  0  0  0
 12 13  1  0  0  0  0
 13 14  1  0  0  0  0
 13 26  1  0  0  0  0
 13 27  1  0  0  0  0
 14 15  1  0  0  0  0
 14 28  1  0  0  0  0
 14 29  1  0  0  0  0
 15 16  1  0  0  0  0
 16 19  2  0  0  0  0
 16 32  1  0  0  0  0
 17 18  2  0  0  0  0
 17 31  1  0  0  0  0
 17 42  1  0  0  0  0
 18 19  1  0  0  0  0
 18 41  1  0  0  0  0
 19 30  1  0  0  0  0
 31 32  2  0  0  0  0
 31 36  1  0  0  0  0
 32 33  1  0  0  0  0
 33 34  2  0  0  0  0
 33 37  1  0  0  0  0
 34 35  1  0  0  0  0
 34 38  1  0  0  0  0
 35 36  2  0  0  0  0
 35 39  1  0  0  0  0
 36 40  1  0  0  0  0
 43 44  1  0  0  0  0
M  CHG  1   3  -1
M  END
$$$$
