30
                    3D
 Schrodinger Suite 2022-3.
 51 54  0  0  1  0  0  0  0  0999 V2000
    1.5190   29.1710    6.6500 C   0  0  0  0  0  0  0  0  0  0  0  0
   -1.9100   31.7270    8.0040 C   0  0  0  0  0  0  0  0  0  0  0  0
   -0.4350   26.2060    8.6600 C   0  0  0  0  0  0  0  0  0  0  0  0
   -1.1640   25.4890    9.8020 C   0  0  0  0  0  0  0  0  0  0  0  0
   -0.9810   23.9700    9.5940 C   0  0  0  0  0  0  0  0  0  0  0  0
   -1.6390   23.1840   10.7370 C   0  0  0  0  0  0  0  0  0  0  0  0
   -1.1110   23.6240   12.1120 C   0  0  0  0  0  0  0  0  0  0  0  0
   -1.2750   25.1390   12.3180 C   0  0  0  0  0  0  0  0  0  0  0  0
   -0.6210   25.9320   11.1760 C   0  0  0  0  0  0  0  0  0  0  0  0
    4.7570   25.6280    6.0280 C   0  0  0  0  0  0  0  0  0  0  0  0
    4.5820   25.1660    7.3340 C   0  0  0  0  0  0  0  0  0  0  0  0
    3.8860   25.9590    8.2620 C   0  0  0  0  0  0  0  0  0  0  0  0
    3.3080   27.1560    7.8770 C   0  0  0  0  0  0  0  0  0  0  0  0
    0.7860   28.1770    7.2990 N   0  0  0  0  0  0  0  0  0  0  0  0
   -0.3640   28.4950    7.9390 C   0  0  0  0  0  0  0  0  0  0  0  0
   -1.0310   27.5670    8.6380 O   0  0  0  0  0  0  0  0  0  0  0  0
   -0.8580   29.8250    7.8780 C   0  0  0  0  0  0  0  0  0  0  0  0
   -2.0040   30.4490    8.3800 N   0  0  0  0  0  0  0  0  0  0  0  0
   -0.6960   31.9940    7.2800 N   0  0  0  0  0  0  0  0  0  0  0  0
   -0.0320   30.7790    7.1600 C   0  0  0  0  0  0  0  0  0  0  0  0
    1.1600   30.4930    6.5300 N   0  0  0  0  0  0  0  0  0  0  0  0
    2.7190   28.7400    6.0760 N   0  0  0  0  0  0  0  0  0  0  0  0
    3.4010   27.5690    6.5310 C   0  0  0  0  0  0  0  0  0  0  0  0
    4.1820   26.8360    5.6210 C   0  0  0  0  0  0  0  0  0  0  0  0
   -2.6230   32.5160    8.2220 H   0  0  0  0  0  0  0  0  0  0  0  0
   -0.6610   25.7670    7.6670 H   0  0  0  0  0  0  0  0  0  0  0  0
    0.6580   26.2820    8.8480 H   0  0  0  0  0  0  0  0  0  0  0  0
   -2.2550   25.7350    9.7550 H   0  0  0  0  0  0  0  0  0  0  0  0
    0.1090   23.7240    9.5650 H   0  0  0  0  0  0  0  0  0  0  0  0
   -1.4430   23.6670    8.6280 H   0  0  0  0  0  0  0  0  0  0  0  0
   -1.4390   22.0960   10.6040 H   0  0  0  0  0  0  0  0  0  0  0  0
   -2.7370   23.3580   10.7040 H   0  0  0  0  0  0  0  0  0  0  0  0
   -0.0300   23.3600   12.1920 H   0  0  0  0  0  0  0  0  0  0  0  0
   -1.6680   23.0800   12.9090 H   0  0  0  0  0  0  0  0  0  0  0  0
   -0.7910   25.4270   13.2820 H   0  0  0  0  0  0  0  0  0  0  0  0
   -2.3590   25.3880   12.3810 H   0  0  0  0  0  0  0  0  0  0  0  0
   -0.8180   27.0180   11.3190 H   0  0  0  0  0  0  0  0  0  0  0  0
    0.4820   25.7620   11.2160 H   0  0  0  0  0  0  0  0  0  0  0  0
    5.3260   25.0500    5.2900 H   0  0  0  0  0  0  0  0  0  0  0  0
    3.7820   25.6450    9.3070 H   0  0  0  0  0  0  0  0  0  0  0  0
    2.7580   27.7480    8.6060 H   0  0  0  0  0  0  0  0  0  0  0  0
   -0.4470   32.8680    6.7920 H   0  0  0  0  0  0  0  0  0  0  0  0
    3.2410   29.3430    5.4040 H   0  0  0  0  0  0  0  0  0  0  0  0
    4.3210   27.1910    4.5980 H   0  0  0  0  0  0  0  0  0  0  0  0
    5.2310   23.6830    7.9220 S   0  0  0  0  0  0  0  0  0  0  0  0
    6.3070   24.0650    8.8440 O   0  0  0  0  0  0  0  0  0  0  0  0
    5.7010   22.7890    6.8390 O   0  0  0  0  0  0  0  0  0  0  0  0
    4.2420   21.9930    9.3180 H   0  0  0  0  0  0  0  0  0  0  0  0
    3.3280   23.4900    9.4030 H   0  0  0  0  0  0  0  0  0  0  0  0
    3.9150   22.8560    8.6800 C   0  0  0  0  0  0  0  0  0  0  0  0
    3.1650   22.4530    7.9480 H   0  0  0  0  0  0  0  0  0  0  0  0
  1 14  1  0  0  0  0
  1 21  2  0  0  0  0
  1 22  1  0  0  0  0
  2 18  2  0  0  0  0
  2 19  1  0  0  0  0
  2 25  1  0  0  0  0
  3  4  1  0  0  0  0
  3 16  1  0  0  0  0
  3 26  1  0  0  0  0
  3 27  1  0  0  0  0
  4  5  1  0  0  0  0
  4  9  1  0  0  0  0
  4 28  1  0  0  0  0
  5  6  1  0  0  0  0
  5 29  1  0  0  0  0
  5 30  1  0  0  0  0
  6  7  1  0  0  0  0
  6 31  1  0  0  0  0
  6 32  1  0  0  0  0
  7  8  1  0  0  0  0
  7 33  1  0  0  0  0
  7 34  1  0  0  0  0
  8  9  1  0  0  0  0
  8 35  1  0  0  0  0
  8 36  1  0  0  0  0
  9 37  1  0  0  0  0
  9 38  1  0  0  0  0
 10 11  1  0  0  0  0
 10 24  2  0  0  0  0
 10 39  1  0  0  0  0
 11 12  2  0  0  0  0
 11 45  1  0  0  0  0
 12 13  1  0  0  0  0
 12 40  1  0  0  0  0
 13 23  2  0  0  0  0
 13 41  1  0  0  0  0
 14 15  2  0  0  0  0
 15 16  1  0  0  0  0
 15 17  1  0  0  0  0
 17 18  1  0  0  0  0
 17 20  2  0  0  0  0
 19 20  1  0  0  0  0
 19 42  1  0  0  0  0
 20 21  1  0  0  0  0
 22 23  1  0  0  0  0
 22 43  1  0  0  0  0
 23 24  1  0  0  0  0
 24 44  1  0  0  0  0
 45 46  2  0  0  0  0
 45 47  2  0  0  0  0
 45 50  1  0  0  0  0
 48 50  1  0  0  0  0
 49 50  1  0  0  0  0
 50 51  1  0  0  0  0
M  END
$$$$
