18625-1
 OpenBabel02232411163D
Structure written by MMmdl.
 38 39  0  0  0  0  0  0  0  0999 V2000
   23.2630   10.7960   29.0360 C   0  0  0  0  0  0  0  0  0  0  0  0
   23.5320   11.0150   30.5090 C   0  0  0  0  0  0  0  0  0  0  0  0
   22.2630   11.0860   31.2650 O   0  0  0  0  0  0  0  0  0  0  0  0
   21.6080    9.9500   31.5860 C   0  0  0  0  0  0  0  0  0  0  0  0
   22.0770    8.7570   31.1490 N   0  0  0  0  0  0  0  0  0  0  0  0
   21.3420    7.6270   31.4670 C   0  0  0  0  0  0  0  0  0  0  0  0
   20.1820    7.6730   32.2350 C   0  0  0  0  0  0  0  0  0  0  0  0
   19.7010    8.9280   32.6960 C   0  0  0  0  0  0  0  0  0  0  0  0
   18.5430    8.9870   33.4300 N   0  0  0  0  0  0  0  0  0  0  0  0
   20.4250   10.1180   32.3660 C   0  0  0  0  0  0  0  0  0  0  0  0
   20.0260   11.4200   32.7360 C   0  0  0  0  0  0  0  0  0  0  0  0
   19.7500   12.5150   33.0010 N   0  0  0  0  0  0  0  0  0  0  0  0
   21.9160    6.4590   30.9050 N   0  0  0  0  0  0  0  0  0  0  0  0
   21.3690    5.1550   30.9280 C   0  0  0  0  0  0  0  0  0  0  0  0
   20.3130    4.8990   31.4660 O   0  0  0  0  0  0  0  0  0  0  0  0
   22.2020    4.1320   30.1680 C   0  0  0  0  0  0  0  0  0  0  0  0
   23.5350    3.8880   30.8130 C   0  0  0  0  0  0  0  0  0  0  0  0
   24.7300    4.4460   30.3300 C   0  0  0  0  0  0  0  0  0  0  0  0
   24.7350    5.3940   28.8860 Cl  0  0  0  0  0  0  0  0  0  0  0  0
   25.9570    4.2310   30.9630 C   0  0  0  0  0  0  0  0  0  0  0  0
   26.0050    3.4190   32.0970 C   0  0  0  0  0  0  0  0  0  0  0  0
   24.8330    2.8290   32.5820 C   0  0  0  0  0  0  0  0  0  0  0  0
   23.6110    3.0610   31.9460 C   0  0  0  0  0  0  0  0  0  0  0  0
   24.2090   10.9530   28.4620 H   0  0  0  0  0  0  0  0  0  0  0  0
   22.5040   11.5140   28.6520 H   0  0  0  0  0  0  0  0  0  0  0  0
   22.9060    9.7580   28.8380 H   0  0  0  0  0  0  0  0  0  0  0  0
   23.9170   12.0420   30.7200 H   0  0  0  0  0  0  0  0  0  0  0  0
   24.1800   10.2240   30.9480 H   0  0  0  0  0  0  0  0  0  0  0  0
   19.6260    6.7640   32.4760 H   0  0  0  0  0  0  0  0  0  0  0  0
   18.1600    9.8780   33.7470 H   0  0  0  0  0  0  0  0  0  0  0  0
   18.0410    8.1250   33.7150 H   0  0  0  0  0  0  0  0  0  0  0  0
   22.8130    6.6090   30.4010 H   0  0  0  0  0  0  0  0  0  0  0  0
   21.6360    3.1610   30.1430 H   0  0  0  0  0  0  0  0  0  0  0  0
   22.3150    4.4840   29.1100 H   0  0  0  0  0  0  0  0  0  0  0  0
   26.8750    4.6860   30.5720 H   0  0  0  0  0  0  0  0  0  0  0  0
   26.9600    3.2370   32.6000 H   0  0  0  0  0  0  0  0  0  0  0  0
   24.8760    2.1760   33.4600 H   0  0  0  0  0  0  0  0  0  0  0  0
   22.7100    2.5770   32.3290 H   0  0  0  0  0  0  0  0  0  0  0  0
  1  2  1  0  0  0  0
  1 24  1  0  0  0  0
  1 25  1  0  0  0  0
  1 26  1  0  0  0  0
  2  3  1  0  0  0  0
  2 27  1  0  0  0  0
  2 28  1  0  0  0  0
  3  4  1  0  0  0  0
  4 10  2  0  0  0  0
  4  5  1  0  0  0  0
  5  6  2  0  0  0  0
  6  7  1  0  0  0  0
  6 13  1  0  0  0  0
  7  8  2  0  0  0  0
  7 29  1  0  0  0  0
  8  9  1  0  0  0  0
  8 10  1  0  0  0  0
  9 30  1  0  0  0  0
  9 31  1  0  0  0  0
 10 11  1  0  0  0  0
 11 12  3  0  0  0  0
 13 14  1  0  0  0  0
 13 32  1  0  0  0  0
 14 15  2  0  0  0  0
 14 16  1  0  0  0  0
 16 17  1  0  0  0  0
 16 33  1  0  0  0  0
 16 34  1  0  0  0  0
 17 23  2  0  0  0  0
 17 18  1  0  0  0  0
 18 19  1  0  0  0  0
 18 20  2  0  0  0  0
 20 21  1  0  0  0  0
 20 35  1  0  0  0  0
 21 22  2  0  0  0  0
 21 36  1  0  0  0  0
 22 23  1  0  0  0  0
 22 37  1  0  0  0  0
 23 38  1  0  0  0  0
M  END
$$$$
