64 flip
                    3D
 Schrodinger Suite 2022-3.
 43 46  0  0  1  0  0  0  0  0999 V2000
    3.2760  -47.4900    7.3150 O   0  0  0  0  0  0  0  0  0  0  0  0
    3.1540  -48.6170    6.8200 C   0  0  0  0  0  0  0  0  0  0  0  0
    4.0550  -49.4450    6.5860 O   0  5  0  0  0  0  0  0  0  0  0  0
    1.7370  -49.0950    6.5130 C   0  0  0  0  0  0  0  0  0  0  0  0
    1.4270  -50.7740    6.9120 S   0  0  0  0  0  0  0  0  0  0  0  0
   -0.2530  -50.6460    6.4900 C   0  0  0  0  0  0  0  0  0  0  0  0
   -1.2180  -51.6430    6.5890 C   0  0  0  0  0  0  0  0  0  0  0  0
   -2.4990  -51.2890    6.1850 C   0  0  0  0  0  0  0  0  0  0  0  0
   -2.8410  -50.0210    5.6970 C   0  0  0  0  0  0  0  0  0  0  0  0
   -1.8570  -49.0400    5.6060 C   0  0  0  0  0  0  0  0  0  0  0  0
   -0.5450  -49.3400    6.0110 C   0  0  0  0  0  0  0  0  0  0  0  0
    0.6310  -48.4640    6.0460 C   0  0  0  0  0  0  0  0  0  0  0  0
    0.5330  -47.0350    5.6160 C   0  0  0  0  0  0  0  0  0  0  0  0
    0.2650  -46.0840    6.7950 C   0  0  0  0  0  0  0  0  0  0  0  0
   -1.0960  -46.2900    7.4620 C   0  0  0  0  0  0  0  0  0  0  0  0
   -2.0690  -45.9290    6.4220 O   0  0  0  0  0  0  0  0  0  0  0  0
   -3.2990  -45.4200    6.7370 C   0  0  0  0  0  0  0  0  0  0  0  0
   -5.8220  -44.2010    6.9830 C   0  0  0  0  0  0  0  0  0  0  0  0
   -5.0390  -43.9510    5.8810 C   0  0  0  0  0  0  0  0  0  0  0  0
   -3.7650  -44.5480    5.7620 C   0  0  0  0  0  0  0  0  0  0  0  0
   -0.9970  -52.6460    6.9630 H   0  0  0  0  0  0  0  0  0  0  0  0
   -3.7380  -52.4950    6.2610 Cl  0  0  0  0  0  0  0  0  0  0  0  0
   -3.8680  -49.8130    5.3940 H   0  0  0  0  0  0  0  0  0  0  0  0
   -2.1290  -48.0470    5.2340 H   0  0  0  0  0  0  0  0  0  0  0  0
   -0.3030  -46.9270    4.8790 H   0  0  0  0  0  0  0  0  0  0  0  0
    1.4830  -46.7140    5.1190 H   0  0  0  0  0  0  0  0  0  0  0  0
    0.3190  -45.0340    6.4300 H   0  0  0  0  0  0  0  0  0  0  0  0
    1.0500  -46.2500    7.5750 H   0  0  0  0  0  0  0  0  0  0  0  0
   -1.2380  -45.6190    8.3330 H   0  0  0  0  0  0  0  0  0  0  0  0
   -1.2800  -47.3630    7.6820 H   0  0  0  0  0  0  0  0  0  0  0  0
   -3.1560  -44.3190    4.8960 H   0  0  0  0  0  0  0  0  0  0  0  0
   -5.3700  -45.0980    7.9970 C   0  0  0  0  0  0  0  0  0  0  0  0
   -4.1160  -45.7680    7.8730 C   0  0  0  0  0  0  0  0  0  0  0  0
   -3.8050  -46.7830    8.8270 C   0  0  0  0  0  0  0  0  0  0  0  0
   -4.6350  -47.0440    9.8890 C   0  0  0  0  0  0  0  0  0  0  0  0
   -5.8390  -46.3060   10.0570 C   0  0  0  0  0  0  0  0  0  0  0  0
   -6.2030  -45.3650    9.1310 C   0  0  0  0  0  0  0  0  0  0  0  0
   -2.9220  -47.4060    8.6940 H   0  0  0  0  0  0  0  0  0  0  0  0
   -4.4050  -47.8370   10.6010 H   0  0  0  0  0  0  0  0  0  0  0  0
   -6.4800  -46.5200   10.9090 H   0  0  0  0  0  0  0  0  0  0  0  0
   -7.1430  -44.8220    9.2280 H   0  0  0  0  0  0  0  0  0  0  0  0
   -5.3850  -43.2850    5.0890 H   0  0  0  0  0  0  0  0  0  0  0  0
   -6.8020  -43.7380    7.0860 H   0  0  0  0  0  0  0  0  0  0  0  0
  1  2  2  0  0  0  0
  2  3  1  0  0  0  0
  2  4  1  0  0  0  0
  4  5  1  0  0  0  0
  4 12  2  0  0  0  0
  5  6  1  0  0  0  0
  6  7  1  0  0  0  0
  6 11  2  0  0  0  0
  7  8  2  0  0  0  0
  7 21  1  0  0  0  0
  8  9  1  0  0  0  0
  8 22  1  0  0  0  0
  9 10  2  0  0  0  0
  9 23  1  0  0  0  0
 10 11  1  0  0  0  0
 10 24  1  0  0  0  0
 11 12  1  0  0  0  0
 12 13  1  0  0  0  0
 13 25  1  0  0  0  0
 13 26  1  0  0  0  0
 13 14  1  0  0  0  0
 14 15  1  0  0  0  0
 14 27  1  0  0  0  0
 14 28  1  0  0  0  0
 15 16  1  0  0  0  0
 15 29  1  0  0  0  0
 15 30  1  0  0  0  0
 16 17  1  0  0  0  0
 17 20  2  0  0  0  0
 17 33  1  0  0  0  0
 18 19  2  0  0  0  0
 18 32  1  0  0  0  0
 18 43  1  0  0  0  0
 19 20  1  0  0  0  0
 19 42  1  0  0  0  0
 20 31  1  0  0  0  0
 32 33  2  0  0  0  0
 32 37  1  0  0  0  0
 33 34  1  0  0  0  0
 34 35  2  0  0  0  0
 34 38  1  0  0  0  0
 35 36  1  0  0  0  0
 35 39  1  0  0  0  0
 36 37  2  0  0  0  0
 36 40  1  0  0  0  0
 37 41  1  0  0  0  0
M  CHG  1   3  -1
M  END
$$$$
