p38a_2n
 OpenBabel02232411163D
Structure written by MMmdl.
 53 56  0  0  0  0  0  0  0  0999 V2000
   38.2880   36.5570   17.1220 C   0  0  0  0  0  0  0  0  0  0  0  0
   34.6220   35.0000   21.1440 C   0  0  0  0  0  0  0  0  0  0  0  0
   37.4820   36.0810   18.1520 C   0  0  0  0  0  0  0  0  0  0  0  0
   34.0580   39.0100   23.7910 C   0  0  0  0  0  0  0  0  0  0  0  0
   34.6990   37.8700   21.3660 C   0  0  0  0  0  0  0  0  0  0  0  0
   35.0490   37.2510   20.1170 C   0  0  0  0  0  0  0  0  0  0  0  0
   37.6670   36.7360   15.8780 C   0  0  0  0  0  0  0  0  0  0  0  0
   36.3230   36.4400   15.6380 C   0  0  0  0  0  0  0  0  0  0  0  0
   35.5380   35.9480   16.6850 C   0  0  0  0  0  0  0  0  0  0  0  0
   34.4040   37.0650   22.5080 C   0  0  0  0  0  0  0  0  0  0  0  0
   34.6500   39.2790   21.5390 C   0  0  0  0  0  0  0  0  0  0  0  0
   35.0410   35.9010   20.0370 C   0  0  0  0  0  0  0  0  0  0  0  0
   36.1240   35.7600   17.9400 C   0  0  0  0  0  0  0  0  0  0  0  0
   37.9880   35.9280   19.3700 F   0  0  0  0  0  0  0  0  0  0  0  0
   35.3740   35.1170   18.9330 O   0  0  0  0  0  0  0  0  0  0  0  0
   34.3480   39.8640   22.7080 N   0  0  0  0  0  0  0  0  0  0  0  0
   34.4640   33.8030   21.0550 O   0  0  0  0  0  0  0  0  0  0  0  0
   34.4240   35.6620   22.4090 N   0  0  0  0  0  0  0  0  0  0  0  0
   34.1010   37.6310   23.7200 N   0  0  0  0  0  0  0  0  0  0  0  0
   33.6460   39.6010   24.9640 N   0  0  0  0  0  0  0  0  0  0  0  0
   39.3380   36.8140   17.2840 H   0  0  0  0  0  0  0  0  0  0  0  0
   35.3180   37.8950   19.2780 H   0  0  0  0  0  0  0  0  0  0  0  0
   35.8740   36.6050   14.6570 H   0  0  0  0  0  0  0  0  0  0  0  0
   34.4790   35.7300   16.5180 H   0  0  0  0  0  0  0  0  0  0  0  0
   34.8640   39.9460   20.6860 H   0  0  0  0  0  0  0  0  0  0  0  0
   33.7350   40.6300   25.0780 H   0  0  0  0  0  0  0  0  0  0  0  0
   38.3840   37.2540   14.8850 F   0  0  0  0  0  0  0  0  0  0  0  0
   32.1980   38.8430   28.4140 C   0  0  0  0  0  0  0  0  0  0  0  0
   32.3590   39.5480   27.0620 C   0  0  0  0  0  0  0  0  0  0  0  0
   33.4320   38.8220   26.2210 C   0  0  0  0  0  0  0  0  0  0  0  0
   34.7490   38.6960   27.0180 C   0  0  0  0  0  0  0  0  0  0  0  0
   34.4720   38.0380   28.3750 C   0  0  0  0  0  0  0  0  0  0  0  0
   33.4570   38.7510   29.1180 O   0  0  0  0  0  0  0  0  0  0  0  0
   31.7800   37.8180   28.2800 H   0  0  0  0  0  0  0  0  0  0  0  0
   31.5770   39.4470   29.1140 H   0  0  0  0  0  0  0  0  0  0  0  0
   32.6590   40.6110   27.2260 H   0  0  0  0  0  0  0  0  0  0  0  0
   31.3850   39.5390   26.5160 H   0  0  0  0  0  0  0  0  0  0  0  0
   33.0560   37.7940   25.9520 H   0  0  0  0  0  0  0  0  0  0  0  0
   35.4730   38.0650   26.4480 H   0  0  0  0  0  0  0  0  0  0  0  0
   35.2010   39.7050   27.1660 H   0  0  0  0  0  0  0  0  0  0  0  0
   34.1470   36.9790   28.2440 H   0  0  0  0  0  0  0  0  0  0  0  0
   35.3560   38.1130   29.0490 H   0  0  0  0  0  0  0  0  0  0  0  0
   34.1390   34.8150   23.6150 C   0  0  0  0  0  0  0  0  0  0  0  0
   34.6200   33.8120   23.4520 H   0  0  0  0  0  0  0  0  0  0  0  0
   34.6040   35.3020   24.5180 H   0  0  0  0  0  0  0  0  0  0  0  0
   32.6310   34.6400   23.8440 C   0  0  0  0  0  0  0  0  0  0  0  0
   32.2020   35.5950   24.2480 H   0  0  0  0  0  0  0  0  0  0  0  0
   32.1090   34.4040   22.8870 H   0  0  0  0  0  0  0  0  0  0  0  0
   32.3390   33.5260   24.8600 C   0  0  0  0  0  0  0  0  0  0  0  0
   32.9890   33.6160   25.7610 H   0  0  0  0  0  0  0  0  0  0  0  0
   31.2610   33.5470   25.1520 H   0  0  0  0  0  0  0  0  0  0  0  0
   32.5020   32.2240   24.2700 O   0  0  0  0  0  0  0  0  0  0  0  0
   33.4810   31.9780   24.3120 H   0  0  0  0  0  0  0  0  0  0  0  0
  1  3  2  0  0  0  0
  1  7  1  0  0  0  0
  1 21  1  0  0  0  0
  2 12  1  0  0  0  0
  2 17  2  0  0  0  0
  2 18  1  0  0  0  0
  3 13  1  0  0  0  0
  3 14  1  0  0  0  0
  4 16  2  0  0  0  0
  4 19  1  0  0  0  0
  4 20  1  0  0  0  0
  5  6  1  0  0  0  0
  5 10  1  0  0  0  0
  5 11  2  0  0  0  0
  6 12  2  0  0  0  0
  6 22  1  0  0  0  0
  7  8  2  0  0  0  0
  7 27  1  0  0  0  0
  8  9  1  0  0  0  0
  8 23  1  0  0  0  0
  9 13  2  0  0  0  0
  9 24  1  0  0  0  0
 10 18  1  0  0  0  0
 10 19  2  0  0  0  0
 11 16  1  0  0  0  0
 11 25  1  0  0  0  0
 12 15  1  0  0  0  0
 13 15  1  0  0  0  0
 18 43  1  0  0  0  0
 20 26  1  0  0  0  0
 20 30  1  0  0  0  0
 28 29  1  0  0  0  0
 28 33  1  0  0  0  0
 28 34  1  0  0  0  0
 28 35  1  0  0  0  0
 29 30  1  0  0  0  0
 29 36  1  0  0  0  0
 29 37  1  0  0  0  0
 30 31  1  0  0  0  0
 30 38  1  0  0  0  0
 31 32  1  0  0  0  0
 31 39  1  0  0  0  0
 31 40  1  0  0  0  0
 32 33  1  0  0  0  0
 32 41  1  0  0  0  0
 32 42  1  0  0  0  0
 43 44  1  0  0  0  0
 43 45  1  0  0  0  0
 43 46  1  0  0  0  0
 46 47  1  0  0  0  0
 46 48  1  0  0  0  0
 46 49  1  0  0  0  0
 49 50  1  0  0  0  0
 49 51  1  0  0  0  0
 49 52  1  0  0  0  0
 52 53  1  0  0  0  0
M  END
$$$$
