21
 OpenBabel02232411153D
Structure written by MMmdl.
 49 52  0  0  0  0  0  0  0  0999 V2000
    1.9330   28.8070    6.8120 C   0  0  0  0  0  0  0  0  0  0  0  0
   -1.5420   31.4290    7.9380 C   0  0  0  0  0  0  0  0  0  0  0  0
   -0.0310   25.9650    8.9490 C   0  0  0  0  0  0  0  0  0  0  0  0
   -0.8450   25.2500   10.0350 C   0  0  0  0  0  0  0  0  0  0  0  0
   -0.6840   23.7290    9.8130 C   0  0  0  0  0  0  0  0  0  0  0  0
   -1.3740   22.9250   10.9250 C   0  0  0  0  0  0  0  0  0  0  0  0
   -0.8780   23.3420   12.3180 C   0  0  0  0  0  0  0  0  0  0  0  0
   -1.0600   24.8520   12.5420 C   0  0  0  0  0  0  0  0  0  0  0  0
   -0.3690   25.6680   11.4400 C   0  0  0  0  0  0  0  0  0  0  0  0
    4.4740   25.3040    7.9660 C   0  0  0  0  0  0  0  0  0  0  0  0
    5.2870   24.7920    6.9640 C   0  0  0  0  0  0  0  0  0  0  0  0
    5.3810   25.5070    5.7480 C   0  0  0  0  0  0  0  0  0  0  0  0
    4.6910   26.7000    5.5380 C   0  0  0  0  0  0  0  0  0  0  0  0
    1.2120   27.8660    7.5420 N   0  0  0  0  0  0  0  0  0  0  0  0
    0.0150   28.2030    8.0830 C   0  0  0  0  0  0  0  0  0  0  0  0
   -0.6640   27.3050    8.8150 O   0  0  0  0  0  0  0  0  0  0  0  0
   -0.5080   29.5090    7.8940 C   0  0  0  0  0  0  0  0  0  0  0  0
   -1.6530   30.1660    8.3580 N   0  0  0  0  0  0  0  0  0  0  0  0
   -0.3270   31.6530    7.1990 N   0  0  0  0  0  0  0  0  0  0  0  0
    0.3300   30.4270    7.1380 C   0  0  0  0  0  0  0  0  0  0  0  0
    1.5280   30.1070    6.5500 N   0  0  0  0  0  0  0  0  0  0  0  0
    3.1570   28.4040    6.2930 N   0  0  0  0  0  0  0  0  0  0  0  0
    3.8480   27.1770    6.5680 C   0  0  0  0  0  0  0  0  0  0  0  0
    3.7570   26.4970    7.7870 C   0  0  0  0  0  0  0  0  0  0  0  0
   -2.2420   32.2390    8.1200 H   0  0  0  0  0  0  0  0  0  0  0  0
    1.0320   26.0960    9.2510 H   0  0  0  0  0  0  0  0  0  0  0  0
   -0.1270   25.4840    7.9540 H   0  0  0  0  0  0  0  0  0  0  0  0
   -1.9240   25.5190    9.9360 H   0  0  0  0  0  0  0  0  0  0  0  0
   -1.1280   23.4500    8.8330 H   0  0  0  0  0  0  0  0  0  0  0  0
    0.4030   23.4680    9.8040 H   0  0  0  0  0  0  0  0  0  0  0  0
   -2.4710   23.0960   10.8690 H   0  0  0  0  0  0  0  0  0  0  0  0
   -1.1720   21.8380   10.7780 H   0  0  0  0  0  0  0  0  0  0  0  0
   -1.4480   22.7820   13.0950 H   0  0  0  0  0  0  0  0  0  0  0  0
    0.2020   23.0850   12.4130 H   0  0  0  0  0  0  0  0  0  0  0  0
   -2.1470   25.0940   12.5710 H   0  0  0  0  0  0  0  0  0  0  0  0
   -0.6160   25.1320   13.5260 H   0  0  0  0  0  0  0  0  0  0  0  0
    0.7340   25.5130   11.5260 H   0  0  0  0  0  0  0  0  0  0  0  0
   -0.5850   26.7490   11.5970 H   0  0  0  0  0  0  0  0  0  0  0  0
    4.3780   24.7690    8.9160 H   0  0  0  0  0  0  0  0  0  0  0  0
    5.8360   23.8620    7.0950 H   0  0  0  0  0  0  0  0  0  0  0  0
    4.7870   27.2680    4.6160 H   0  0  0  0  0  0  0  0  0  0  0  0
   -0.0630   32.5320    6.7310 H   0  0  0  0  0  0  0  0  0  0  0  0
    3.6580   29.0520    5.6390 H   0  0  0  0  0  0  0  0  0  0  0  0
    3.1330   26.8620    8.6020 H   0  0  0  0  0  0  0  0  0  0  0  0
    6.1930   24.8730    4.8350 O   0  0  0  0  0  0  0  0  0  0  0  0
    6.4150   25.5160    3.5530 C   0  0  0  0  0  0  0  0  0  0  0  0
    7.1040   24.7940    3.0530 H   0  0  0  0  0  0  0  0  0  0  0  0
    5.4560   25.6030    3.0000 H   0  0  0  0  0  0  0  0  0  0  0  0
    6.9080   26.4990    3.7050 H   0  0  0  0  0  0  0  0  0  0  0  0
  1 14  2  0  0  0  0
  1 21  1  0  0  0  0
  1 22  1  0  0  0  0
  2 18  2  0  0  0  0
  2 19  1  0  0  0  0
  2 25  1  0  0  0  0
  3  4  1  0  0  0  0
  3 16  1  0  0  0  0
  3 26  1  0  0  0  0
  3 27  1  0  0  0  0
  4  5  1  0  0  0  0
  4  9  1  0  0  0  0
  4 28  1  0  0  0  0
  5  6  1  0  0  0  0
  5 29  1  0  0  0  0
  5 30  1  0  0  0  0
  6  7  1  0  0  0  0
  6 31  1  0  0  0  0
  6 32  1  0  0  0  0
  7  8  1  0  0  0  0
  7 33  1  0  0  0  0
  7 34  1  0  0  0  0
  8  9  1  0  0  0  0
  8 35  1  0  0  0  0
  8 36  1  0  0  0  0
  9 37  1  0  0  0  0
  9 38  1  0  0  0  0
 10 11  2  0  0  0  0
 10 24  1  0  0  0  0
 10 39  1  0  0  0  0
 11 12  1  0  0  0  0
 11 40  1  0  0  0  0
 12 13  2  0  0  0  0
 12 45  1  0  0  0  0
 13 23  1  0  0  0  0
 13 41  1  0  0  0  0
 14 15  1  0  0  0  0
 15 16  1  0  0  0  0
 15 17  2  0  0  0  0
 17 18  1  0  0  0  0
 17 20  1  0  0  0  0
 19 20  1  0  0  0  0
 19 42  1  0  0  0  0
 20 21  2  0  0  0  0
 22 23  1  0  0  0  0
 22 43  1  0  0  0  0
 23 24  2  0  0  0  0
 24 44  1  0  0  0  0
 45 46  1  0  0  0  0
 46 47  1  0  0  0  0
 46 48  1  0  0  0  0
 46 49  1  0  0  0  0
M  END
$$$$
