p38a_2aa
 OpenBabel02232411163D
Structure written by MMmdl.
 43 45  0  0  0  0  0  0  0  0999 V2000
   38.2490   36.5080   17.1830 C   0  0  0  0  0  0  0  0  0  0  0  0
   34.6290   35.1390   21.2920 C   0  0  0  0  0  0  0  0  0  0  0  0
   37.4480   36.0600   18.2290 C   0  0  0  0  0  0  0  0  0  0  0  0
   34.3360   39.2730   23.7870 C   0  0  0  0  0  0  0  0  0  0  0  0
   34.0490   39.2330   26.2800 C   0  0  0  0  0  0  0  0  0  0  0  0
   34.7160   38.0180   21.3680 C   0  0  0  0  0  0  0  0  0  0  0  0
   35.0130   37.3360   20.1380 C   0  0  0  0  0  0  0  0  0  0  0  0
   37.6210   36.6660   15.9400 C   0  0  0  0  0  0  0  0  0  0  0  0
   36.2750   36.3690   15.7150 C   0  0  0  0  0  0  0  0  0  0  0  0
   35.4920   35.9100   16.7800 C   0  0  0  0  0  0  0  0  0  0  0  0
   34.5120   37.2690   22.5660 C   0  0  0  0  0  0  0  0  0  0  0  0
   34.6300   39.4320   21.4680 C   0  0  0  0  0  0  0  0  0  0  0  0
   35.0150   35.9830   20.1290 C   0  0  0  0  0  0  0  0  0  0  0  0
   36.0840   35.7500   18.0360 C   0  0  0  0  0  0  0  0  0  0  0  0
   34.2710   35.1090   23.7920 C   0  0  0  0  0  0  0  0  0  0  0  0
   37.9640   35.9230   19.4440 F   0  0  0  0  0  0  0  0  0  0  0  0
   35.3330   35.1510   19.0570 O   0  0  0  0  0  0  0  0  0  0  0  0
   34.4330   40.0680   22.6340 N   0  0  0  0  0  0  0  0  0  0  0  0
   34.4430   33.9440   21.2690 O   0  0  0  0  0  0  0  0  0  0  0  0
   34.4730   35.8690   22.5260 N   0  0  0  0  0  0  0  0  0  0  0  0
   34.3230   37.8930   23.7760 N   0  0  0  0  0  0  0  0  0  0  0  0
   34.3190   39.9440   25.0000 N   0  0  0  0  0  0  0  0  0  0  0  0
   39.3030   36.7630   17.3310 H   0  0  0  0  0  0  0  0  0  0  0  0
   34.7340   40.0240   27.4250 C   0  0  0  0  0  0  0  0  0  0  0  0
   35.2460   37.9370   19.2570 H   0  0  0  0  0  0  0  0  0  0  0  0
   35.8210   36.5070   14.7310 H   0  0  0  0  0  0  0  0  0  0  0  0
   34.4300   35.6960   16.6250 H   0  0  0  0  0  0  0  0  0  0  0  0
   34.7140   40.0560   20.5620 H   0  0  0  0  0  0  0  0  0  0  0  0
   34.9530   35.5050   24.5940 H   0  0  0  0  0  0  0  0  0  0  0  0
   33.2100   35.2200   24.1420 H   0  0  0  0  0  0  0  0  0  0  0  0
   34.4940   34.0220   23.6310 H   0  0  0  0  0  0  0  0  0  0  0  0
   34.0370   40.9430   25.0030 H   0  0  0  0  0  0  0  0  0  0  0  0
   38.3350   37.1630   14.9340 F   0  0  0  0  0  0  0  0  0  0  0  0
   32.5340   39.0760   26.5630 C   0  0  0  0  0  0  0  0  0  0  0  0
   31.8310   38.3930   25.5190 O   0  0  0  0  0  0  0  0  0  0  0  0
   32.4460   37.7630   25.0670 H   0  0  0  0  0  0  0  0  0  0  0  0
   32.3970   38.4900   27.5050 H   0  0  0  0  0  0  0  0  0  0  0  0
   32.0290   40.0680   26.6200 H   0  0  0  0  0  0  0  0  0  0  0  0
   33.9770   41.1670   27.8440 O   0  0  0  0  0  0  0  0  0  0  0  0
   34.7750   39.3980   28.3500 H   0  0  0  0  0  0  0  0  0  0  0  0
   35.7530   40.3580   27.1200 H   0  0  0  0  0  0  0  0  0  0  0  0
   33.8050   41.7560   27.0430 H   0  0  0  0  0  0  0  0  0  0  0  0
   34.5350   38.2130   26.2420 H   0  0  0  0  0  0  0  0  0  0  0  0
  1  3  2  0  0  0  0
  1  8  1  0  0  0  0
  1 23  1  0  0  0  0
  2 13  1  0  0  0  0
  2 19  2  0  0  0  0
  2 20  1  0  0  0  0
  3 14  1  0  0  0  0
  3 16  1  0  0  0  0
  4 18  2  0  0  0  0
  4 21  1  0  0  0  0
  4 22  1  0  0  0  0
  5 22  1  0  0  0  0
  5 24  1  0  0  0  0
  5 34  1  0  0  0  0
  5 43  1  0  0  0  0
  6  7  1  0  0  0  0
  6 11  1  0  0  0  0
  6 12  2  0  0  0  0
  7 13  2  0  0  0  0
  7 25  1  0  0  0  0
  8  9  2  0  0  0  0
  8 33  1  0  0  0  0
  9 10  1  0  0  0  0
  9 26  1  0  0  0  0
 10 14  2  0  0  0  0
 10 27  1  0  0  0  0
 11 20  1  0  0  0  0
 11 21  2  0  0  0  0
 12 18  1  0  0  0  0
 12 28  1  0  0  0  0
 13 17  1  0  0  0  0
 14 17  1  0  0  0  0
 15 20  1  0  0  0  0
 15 29  1  0  0  0  0
 15 30  1  0  0  0  0
 15 31  1  0  0  0  0
 22 32  1  0  0  0  0
 24 39  1  0  0  0  0
 24 40  1  0  0  0  0
 24 41  1  0  0  0  0
 34 35  1  0  0  0  0
 34 37  1  0  0  0  0
 34 38  1  0  0  0  0
 35 36  1  0  0  0  0
 39 42  1  0  0  0  0
M  END
$$$$
