18638-1
 OpenBabel02232411163D
Structure written by MMmdl.
 52 53  0  0  0  0  0  0  0  0999 V2000
   24.5750   10.6850   30.7260 C   0  0  0  0  0  0  0  0  0  0  0  0
   23.2590   11.0820   30.0910 C   0  0  0  0  0  0  0  0  0  0  0  0
   22.1830   11.1570   31.1020 O   0  0  0  0  0  0  0  0  0  0  0  0
   21.5880   10.0180   31.5230 C   0  0  0  0  0  0  0  0  0  0  0  0
   22.0460    8.8190   31.0910 N   0  0  0  0  0  0  0  0  0  0  0  0
   21.3410    7.6910   31.4780 C   0  0  0  0  0  0  0  0  0  0  0  0
   20.2110    7.7490   32.2870 C   0  0  0  0  0  0  0  0  0  0  0  0
   19.7370    9.0090   32.7370 C   0  0  0  0  0  0  0  0  0  0  0  0
   18.5920    9.0690   33.4910 N   0  0  0  0  0  0  0  0  0  0  0  0
   20.4510   10.1940   32.3690 C   0  0  0  0  0  0  0  0  0  0  0  0
   20.0700   11.4990   32.7500 C   0  0  0  0  0  0  0  0  0  0  0  0
   19.8060   12.5930   33.0290 N   0  0  0  0  0  0  0  0  0  0  0  0
   21.8920    6.5010   30.9390 N   0  0  0  0  0  0  0  0  0  0  0  0
   21.2320    5.2560   30.8710 C   0  0  0  0  0  0  0  0  0  0  0  0
   20.1620    5.0480   31.4030 O   0  0  0  0  0  0  0  0  0  0  0  0
   21.9320    4.2320   29.9920 C   0  0  0  0  0  0  0  0  0  0  0  0
   23.3070    3.8230   30.4270 C   0  0  0  0  0  0  0  0  0  0  0  0
   24.4510    4.5450   29.9790 C   0  0  0  0  0  0  0  0  0  0  0  0
   24.1230    5.6850   29.2500 O   0  0  0  0  0  0  0  0  0  0  0  0
   25.1490    6.7070   29.1210 C   0  0  0  0  0  0  0  0  0  0  0  0
   25.7420    4.0780   30.2060 C   0  0  0  0  0  0  0  0  0  0  0  0
   25.9520    2.9020   30.9480 C   0  0  0  0  0  0  0  0  0  0  0  0
   27.5930    2.2910   31.0790 S   0  0  0  0  0  0  0  0  0  0  0  0
   28.5650    3.4020   30.9280 O   0  0  0  0  0  0  0  0  0  0  0  0
   27.7690    1.6160   32.3850 O   0  0  0  0  0  0  0  0  0  0  0  0
   27.7220    1.1710   29.7600 C   0  0  0  0  0  0  0  0  0  0  0  0
   24.8300    2.2440   31.4750 C   0  0  0  0  0  0  0  0  0  0  0  0
   23.5140    2.6850   31.1930 C   0  0  0  0  0  0  0  0  0  0  0  0
   25.1080    1.1780   32.2950 O   0  0  0  0  0  0  0  0  0  0  0  0
   24.0310    0.2430   32.5900 C   0  0  0  0  0  0  0  0  0  0  0  0
   24.5440    9.6300   31.0900 H   0  0  0  0  0  0  0  0  0  0  0  0
   24.8290   11.3550   31.5730 H   0  0  0  0  0  0  0  0  0  0  0  0
   25.3870   10.7520   29.9590 H   0  0  0  0  0  0  0  0  0  0  0  0
   23.2570   12.1450   29.7480 H   0  0  0  0  0  0  0  0  0  0  0  0
   22.9540   10.3840   29.2790 H   0  0  0  0  0  0  0  0  0  0  0  0
   19.6670    6.8420   32.5630 H   0  0  0  0  0  0  0  0  0  0  0  0
   18.0880    8.2050   33.7670 H   0  0  0  0  0  0  0  0  0  0  0  0
   18.1990    9.9610   33.7920 H   0  0  0  0  0  0  0  0  0  0  0  0
   22.7950    6.6080   30.4190 H   0  0  0  0  0  0  0  0  0  0  0  0
   21.2850    3.3170   29.9360 H   0  0  0  0  0  0  0  0  0  0  0  0
   22.0020    4.6790   28.9590 H   0  0  0  0  0  0  0  0  0  0  0  0
   24.5510    7.5810   28.7710 H   0  0  0  0  0  0  0  0  0  0  0  0
   25.6270    6.9120   30.1020 H   0  0  0  0  0  0  0  0  0  0  0  0
   25.8860    6.3820   28.3560 H   0  0  0  0  0  0  0  0  0  0  0  0
   26.5950    4.6200   29.7790 H   0  0  0  0  0  0  0  0  0  0  0  0
   27.6130    1.6800   28.7650 H   0  0  0  0  0  0  0  0  0  0  0  0
   28.7090    0.6420   29.7370 H   0  0  0  0  0  0  0  0  0  0  0  0
   26.9300    0.3780   29.7910 H   0  0  0  0  0  0  0  0  0  0  0  0
   22.6570    2.1180   31.5600 H   0  0  0  0  0  0  0  0  0  0  0  0
   23.6110   -0.1560   31.6430 H   0  0  0  0  0  0  0  0  0  0  0  0
   23.2630    0.7250   33.2310 H   0  0  0  0  0  0  0  0  0  0  0  0
   24.5750   -0.5550   33.1510 H   0  0  0  0  0  0  0  0  0  0  0  0
  1  2  1  0  0  0  0
  1 31  1  0  0  0  0
  1 32  1  0  0  0  0
  1 33  1  0  0  0  0
  2  3  1  0  0  0  0
  2 34  1  0  0  0  0
  2 35  1  0  0  0  0
  3  4  1  0  0  0  0
  4 10  2  0  0  0  0
  4  5  1  0  0  0  0
  5  6  2  0  0  0  0
  6  7  1  0  0  0  0
  6 13  1  0  0  0  0
  7  8  2  0  0  0  0
  7 36  1  0  0  0  0
  8  9  1  0  0  0  0
  8 10  1  0  0  0  0
  9 37  1  0  0  0  0
  9 38  1  0  0  0  0
 10 11  1  0  0  0  0
 11 12  3  0  0  0  0
 13 14  1  0  0  0  0
 13 39  1  0  0  0  0
 14 15  2  0  0  0  0
 14 16  1  0  0  0  0
 16 17  1  0  0  0  0
 16 40  1  0  0  0  0
 16 41  1  0  0  0  0
 17 28  2  0  0  0  0
 17 18  1  0  0  0  0
 18 19  1  0  0  0  0
 18 21  2  0  0  0  0
 19 20  1  0  0  0  0
 20 42  1  0  0  0  0
 20 43  1  0  0  0  0
 20 44  1  0  0  0  0
 21 22  1  0  0  0  0
 21 45  1  0  0  0  0
 22 23  1  0  0  0  0
 22 27  2  0  0  0  0
 23 24  2  0  0  0  0
 23 25  2  0  0  0  0
 23 26  1  0  0  0  0
 26 46  1  0  0  0  0
 26 47  1  0  0  0  0
 26 48  1  0  0  0  0
 27 28  1  0  0  0  0
 27 29  1  0  0  0  0
 28 49  1  0  0  0  0
 29 30  1  0  0  0  0
 30 50  1  0  0  0  0
 30 51  1  0  0  0  0
 30 52  1  0  0  0  0
M  END
$$$$
