32
 OpenBabel02232411153D
Structure written by MMmdl.
 54 57  0  0  0  0  0  0  0  0999 V2000
    1.8890   28.8410    6.7570 C   0  0  0  0  0  0  0  0  0  0  0  0
   -1.5390   31.5000    7.9380 C   0  0  0  0  0  0  0  0  0  0  0  0
   -0.1120   26.0280    8.9280 C   0  0  0  0  0  0  0  0  0  0  0  0
   -0.8800   25.3610   10.0740 C   0  0  0  0  0  0  0  0  0  0  0  0
   -0.8990   23.8380    9.8110 C   0  0  0  0  0  0  0  0  0  0  0  0
   -1.5080   23.0670   10.9910 C   0  0  0  0  0  0  0  0  0  0  0  0
   -0.8120   23.4120   12.3170 C   0  0  0  0  0  0  0  0  0  0  0  0
   -0.8760   24.9240   12.5800 C   0  0  0  0  0  0  0  0  0  0  0  0
   -0.2260   25.7030   11.4280 C   0  0  0  0  0  0  0  0  0  0  0  0
    5.5390   25.7870    5.3720 C   0  0  0  0  0  0  0  0  0  0  0  0
    5.2930   24.7960    6.3400 C   0  0  0  0  0  0  0  0  0  0  0  0
    4.2920   25.0760    7.2950 C   0  0  0  0  0  0  0  0  0  0  0  0
    3.5890   26.2890    7.3340 C   0  0  0  0  0  0  0  0  0  0  0  0
    1.1740   27.9070    7.4960 N   0  0  0  0  0  0  0  0  0  0  0  0
   -0.0160   28.2600    8.0530 C   0  0  0  0  0  0  0  0  0  0  0  0
   -0.7080   27.3820    8.7940 O   0  0  0  0  0  0  0  0  0  0  0  0
   -0.5240   29.5720    7.8730 C   0  0  0  0  0  0  0  0  0  0  0  0
   -1.6620   30.2340    8.3460 N   0  0  0  0  0  0  0  0  0  0  0  0
   -0.3240   31.7170    7.1960 N   0  0  0  0  0  0  0  0  0  0  0  0
    0.3200   30.4870    7.1240 C   0  0  0  0  0  0  0  0  0  0  0  0
    1.5100   30.1510    6.5240 N   0  0  0  0  0  0  0  0  0  0  0  0
    3.0900   28.4360    6.1610 N   0  0  0  0  0  0  0  0  0  0  0  0
    3.8000   27.2170    6.3090 C   0  0  0  0  0  0  0  0  0  0  0  0
    4.8020   26.9570    5.3340 C   0  0  0  0  0  0  0  0  0  0  0  0
   -2.2300   32.3140    8.1330 H   0  0  0  0  0  0  0  0  0  0  0  0
    0.9650   26.1450    9.1730 H   0  0  0  0  0  0  0  0  0  0  0  0
   -0.2760   25.5330    7.9500 H   0  0  0  0  0  0  0  0  0  0  0  0
   -1.9320   25.7400   10.0950 H   0  0  0  0  0  0  0  0  0  0  0  0
   -1.5000   23.6300    8.8980 H   0  0  0  0  0  0  0  0  0  0  0  0
    0.1440   23.4700    9.6610 H   0  0  0  0  0  0  0  0  0  0  0  0
   -2.5820   23.3320   11.0780 H   0  0  0  0  0  0  0  0  0  0  0  0
   -1.4180   21.9710   10.8090 H   0  0  0  0  0  0  0  0  0  0  0  0
   -1.3120   22.8670   13.1500 H   0  0  0  0  0  0  0  0  0  0  0  0
    0.2540   23.0920   12.2680 H   0  0  0  0  0  0  0  0  0  0  0  0
   -1.9390   25.2360   12.6990 H   0  0  0  0  0  0  0  0  0  0  0  0
   -0.3400   25.1600   13.5270 H   0  0  0  0  0  0  0  0  0  0  0  0
    0.8610   25.4460   11.4040 H   0  0  0  0  0  0  0  0  0  0  0  0
   -0.3240   26.7950   11.6220 H   0  0  0  0  0  0  0  0  0  0  0  0
    6.3260   25.6460    4.6160 H   0  0  0  0  0  0  0  0  0  0  0  0
    2.8700   26.4930    8.1240 H   0  0  0  0  0  0  0  0  0  0  0  0
   -0.0510   32.5970    6.7350 H   0  0  0  0  0  0  0  0  0  0  0  0
    3.5760   29.1440    5.5500 H   0  0  0  0  0  0  0  0  0  0  0  0
    5.0010   27.6820    4.5470 H   0  0  0  0  0  0  0  0  0  0  0  0
    6.2190   23.3520    6.3240 S   0  0  0  0  0  0  0  0  0  0  0  0
    5.3730   22.1650    6.1350 O   0  0  0  0  0  0  0  0  0  0  0  0
    7.3220   23.3830    5.3490 O   0  0  0  0  0  0  0  0  0  0  0  0
    6.9130   23.3650    7.8840 N   0  0  0  0  0  0  0  0  0  0  0  0
    6.3050   23.5250    8.7320 H   0  0  0  0  0  0  0  0  0  0  0  0
    7.6800   22.7110    8.0880 H   0  0  0  0  0  0  0  0  0  0  0  0
    4.0500   24.0350    8.1470 O   0  0  0  0  0  0  0  0  0  0  0  0
    3.1700   24.2040    9.2890 C   0  0  0  0  0  0  0  0  0  0  0  0
    3.5060   23.3530    9.9320 H   0  0  0  0  0  0  0  0  0  0  0  0
    3.3670   25.1680    9.7960 H   0  0  0  0  0  0  0  0  0  0  0  0
    2.1280   24.0830    8.9410 H   0  0  0  0  0  0  0  0  0  0  0  0
  1 14  2  0  0  0  0
  1 21  1  0  0  0  0
  1 22  1  0  0  0  0
  2 18  2  0  0  0  0
  2 19  1  0  0  0  0
  2 25  1  0  0  0  0
  3  4  1  0  0  0  0
  3 16  1  0  0  0  0
  3 26  1  0  0  0  0
  3 27  1  0  0  0  0
  4  5  1  0  0  0  0
  4  9  1  0  0  0  0
  4 28  1  0  0  0  0
  5  6  1  0  0  0  0
  5 29  1  0  0  0  0
  5 30  1  0  0  0  0
  6  7  1  0  0  0  0
  6 31  1  0  0  0  0
  6 32  1  0  0  0  0
  7  8  1  0  0  0  0
  7 33  1  0  0  0  0
  7 34  1  0  0  0  0
  8  9  1  0  0  0  0
  8 35  1  0  0  0  0
  8 36  1  0  0  0  0
  9 37  1  0  0  0  0
  9 38  1  0  0  0  0
 10 11  2  0  0  0  0
 10 24  1  0  0  0  0
 10 39  1  0  0  0  0
 11 12  1  0  0  0  0
 11 44  1  0  0  0  0
 12 13  2  0  0  0  0
 12 50  1  0  0  0  0
 13 23  1  0  0  0  0
 13 40  1  0  0  0  0
 14 15  1  0  0  0  0
 15 16  1  0  0  0  0
 15 17  2  0  0  0  0
 17 18  1  0  0  0  0
 17 20  1  0  0  0  0
 19 20  1  0  0  0  0
 19 41  1  0  0  0  0
 20 21  2  0  0  0  0
 22 23  1  0  0  0  0
 22 42  1  0  0  0  0
 23 24  2  0  0  0  0
 24 43  1  0  0  0  0
 44 45  2  0  0  0  0
 44 46  2  0  0  0  0
 44 47  1  0  0  0  0
 47 49  1  0  0  0  0
 47 48  1  0  0  0  0
 50 51  1  0  0  0  0
 51 52  1  0  0  0  0
 51 53  1  0  0  0  0
 51 54  1  0  0  0  0
M  END
$$$$
