51
 OpenBabel02232411163D
Structure written by MMmdl.
 44 47  0  0  0  0  0  0  0  0999 V2000
    3.9760  -50.8360    7.1290 O   0  0  0  0  0  0  0  0  0  0  0  0
    3.2910  -49.7940    7.0790 C   0  0  0  0  0  0  0  0  0  0  0  0
    3.7030  -48.6350    7.2200 O   0  5  0  0  0  0  0  0  0  0  0  0
    1.7910  -49.9980    6.8020 C   0  0  0  0  0  0  0  0  0  0  0  0
   -0.1640  -51.1840    6.7330 C   0  0  0  0  0  0  0  0  0  0  0  0
   -1.1880  -52.1440    6.8700 C   0  0  0  0  0  0  0  0  0  0  0  0
   -2.4670  -51.7880    6.4800 C   0  0  0  0  0  0  0  0  0  0  0  0
   -2.7420  -50.5130    5.9230 C   0  0  0  0  0  0  0  0  0  0  0  0
   -1.7230  -49.5890    5.7860 C   0  0  0  0  0  0  0  0  0  0  0  0
   -0.4160  -49.8570    6.2180 C   0  0  0  0  0  0  0  0  0  0  0  0
    0.8260  -49.1230    6.3100 C   0  0  0  0  0  0  0  0  0  0  0  0
    0.9660  -47.6620    6.0600 C   0  0  0  0  0  0  0  0  0  0  0  0
    0.2620  -46.8740    7.1860 C   0  0  0  0  0  0  0  0  0  0  0  0
   -0.7460  -45.8290    6.7160 C   0  0  0  0  0  0  0  0  0  0  0  0
   -1.9950  -46.3360    7.3180 O   0  0  0  0  0  0  0  0  0  0  0  0
   -3.1670  -45.6740    7.1020 C   0  0  0  0  0  0  0  0  0  0  0  0
   -5.6650  -44.3880    6.9920 C   0  0  0  0  0  0  0  0  0  0  0  0
   -4.7450  -44.2190    5.9870 C   0  0  0  0  0  0  0  0  0  0  0  0
   -3.4800  -44.8650    6.0290 C   0  0  0  0  0  0  0  0  0  0  0  0
   -0.9830  -53.1340    7.2780 H   0  0  0  0  0  0  0  0  0  0  0  0
   -3.2900  -52.4960    6.5920 H   0  0  0  0  0  0  0  0  0  0  0  0
   -3.7600  -50.2850    5.6020 H   0  0  0  0  0  0  0  0  0  0  0  0
   -2.0680  -48.0850    4.9950 Cl  0  0  0  0  0  0  0  0  0  0  0  0
    0.5300  -47.4010    5.0650 H   0  0  0  0  0  0  0  0  0  0  0  0
    2.0500  -47.3780    6.0420 H   0  0  0  0  0  0  0  0  0  0  0  0
    1.0180  -46.3930    7.8370 H   0  0  0  0  0  0  0  0  0  0  0  0
   -0.3380  -47.5910    7.8150 H   0  0  0  0  0  0  0  0  0  0  0  0
   -0.5870  -44.8230    7.1520 H   0  0  0  0  0  0  0  0  0  0  0  0
   -0.8660  -45.8040    5.6280 H   0  0  0  0  0  0  0  0  0  0  0  0
   -2.8200  -44.7140    5.1890 H   0  0  0  0  0  0  0  0  0  0  0  0
   -5.3740  -45.2470    8.0980 C   0  0  0  0  0  0  0  0  0  0  0  0
   -4.1330  -45.9340    8.1480 C   0  0  0  0  0  0  0  0  0  0  0  0
   -3.8710  -46.8600    9.1970 C   0  0  0  0  0  0  0  0  0  0  0  0
   -4.8050  -47.0660   10.1840 C   0  0  0  0  0  0  0  0  0  0  0  0
   -6.0170  -46.3240   10.1810 C   0  0  0  0  0  0  0  0  0  0  0  0
   -6.3040  -45.4450    9.1630 C   0  0  0  0  0  0  0  0  0  0  0  0
   -2.9230  -47.4080    9.1920 H   0  0  0  0  0  0  0  0  0  0  0  0
   -4.6420  -47.8100   10.9610 H   0  0  0  0  0  0  0  0  0  0  0  0
   -6.7280  -46.4670   10.9910 H   0  0  0  0  0  0  0  0  0  0  0  0
   -7.2480  -44.9020    9.1480 H   0  0  0  0  0  0  0  0  0  0  0  0
   -4.9700  -43.5770    5.1310 H   0  0  0  0  0  0  0  0  0  0  0  0
   -6.6330  -43.8890    6.9560 H   0  0  0  0  0  0  0  0  0  0  0  0
    1.1930  -51.2500    7.0560 N   0  0  0  0  0  0  0  0  0  0  0  0
    1.6390  -52.0850    7.4240 H   0  0  0  0  0  0  0  0  0  0  0  0
  1  2  2  0  0  0  0
  2  3  1  0  0  0  0
  2  4  1  0  0  0  0
  4 11  2  0  0  0  0
  4 43  1  0  0  0  0
  5  6  2  0  0  0  0
  5 10  1  0  0  0  0
  5 43  1  0  0  0  0
  6  7  1  0  0  0  0
  6 20  1  0  0  0  0
  7  8  2  0  0  0  0
  7 21  1  0  0  0  0
  8  9  1  0  0  0  0
  8 22  1  0  0  0  0
  9 10  2  0  0  0  0
  9 23  1  0  0  0  0
 10 11  1  0  0  0  0
 11 12  1  0  0  0  0
 12 24  1  0  0  0  0
 12 25  1  0  0  0  0
 12 13  1  0  0  0  0
 13 14  1  0  0  0  0
 13 26  1  0  0  0  0
 13 27  1  0  0  0  0
 14 15  1  0  0  0  0
 14 28  1  0  0  0  0
 14 29  1  0  0  0  0
 15 16  1  0  0  0  0
 16 19  2  0  0  0  0
 16 32  1  0  0  0  0
 17 18  2  0  0  0  0
 17 31  1  0  0  0  0
 17 42  1  0  0  0  0
 18 19  1  0  0  0  0
 18 41  1  0  0  0  0
 19 30  1  0  0  0  0
 31 32  2  0  0  0  0
 31 36  1  0  0  0  0
 32 33  1  0  0  0  0
 33 34  2  0  0  0  0
 33 37  1  0  0  0  0
 34 35  1  0  0  0  0
 34 38  1  0  0  0  0
 35 36  2  0  0  0  0
 35 39  1  0  0  0  0
 36 40  1  0  0  0  0
 43 44  1  0  0  0  0
M  CHG  1   3  -1
M  END
$$$$
