p38a_3flw
 OpenBabel02232411163D
Structure written by MMmdl.
 49 51  0  0  0  0  0  0  0  0999 V2000
   38.3090   36.5830   17.1140 C   0  0  0  0  0  0  0  0  0  0  0  0
   37.6650   36.7470   15.8790 C   0  0  0  0  0  0  0  0  0  0  0  0
   32.9210   39.9080   27.2990 C   0  0  0  0  0  0  0  0  0  0  0  0
   34.2890   40.4580   27.7290 C   0  0  0  0  0  0  0  0  0  0  0  0
   31.6120   38.2990   25.8330 C   0  0  0  0  0  0  0  0  0  0  0  0
   34.0460   34.9510   23.6310 C   0  0  0  0  0  0  0  0  0  0  0  0
   38.0500   35.9780   19.3730 F   0  0  0  0  0  0  0  0  0  0  0  0
   37.5230   36.1170   18.1640 C   0  0  0  0  0  0  0  0  0  0  0  0
   38.3640   37.2550   14.8680 F   0  0  0  0  0  0  0  0  0  0  0  0
   36.3180   36.4450   15.6660 C   0  0  0  0  0  0  0  0  0  0  0  0
   35.5530   35.9630   16.7340 C   0  0  0  0  0  0  0  0  0  0  0  0
   36.1620   35.7900   17.9800 C   0  0  0  0  0  0  0  0  0  0  0  0
   35.4420   35.1510   18.9960 O   0  0  0  0  0  0  0  0  0  0  0  0
   35.0570   35.9550   20.0670 C   0  0  0  0  0  0  0  0  0  0  0  0
   35.0410   37.3070   20.1220 C   0  0  0  0  0  0  0  0  0  0  0  0
   34.6300   37.9440   21.3440 C   0  0  0  0  0  0  0  0  0  0  0  0
   34.5330   39.3540   21.4930 C   0  0  0  0  0  0  0  0  0  0  0  0
   34.1570   39.9450   22.6370 N   0  0  0  0  0  0  0  0  0  0  0  0
   34.6170   35.0670   21.1760 C   0  0  0  0  0  0  0  0  0  0  0  0
   34.4890   33.8630   21.1080 O   0  0  0  0  0  0  0  0  0  0  0  0
   34.3350   35.7510   22.4080 N   0  0  0  0  0  0  0  0  0  0  0  0
   34.3030   37.1530   22.4860 C   0  0  0  0  0  0  0  0  0  0  0  0
   33.9320   37.7240   23.6760 N   0  0  0  0  0  0  0  0  0  0  0  0
   33.8520   39.1020   23.7260 C   0  0  0  0  0  0  0  0  0  0  0  0
   33.4670   39.7040   24.9010 N   0  0  0  0  0  0  0  0  0  0  0  0
   32.9950   38.9400   26.1000 C   0  0  0  0  0  0  0  0  0  0  0  0
   31.2480   37.2700   26.9130 C   0  0  0  0  0  0  0  0  0  0  0  0
   30.4760   36.2160   26.2970 O   0  0  0  0  0  0  0  0  0  0  0  0
   34.1690   41.2140   28.9500 O   0  0  0  0  0  0  0  0  0  0  0  0
   39.3610   36.8450   17.2540 H   0  0  0  0  0  0  0  0  0  0  0  0
   32.4670   39.3610   28.1630 H   0  0  0  0  0  0  0  0  0  0  0  0
   32.2560   40.7650   27.0440 H   0  0  0  0  0  0  0  0  0  0  0  0
   34.9960   39.6420   27.9990 H   0  0  0  0  0  0  0  0  0  0  0  0
   34.7100   41.1330   26.9500 H   0  0  0  0  0  0  0  0  0  0  0  0
   30.8300   39.0890   25.7750 H   0  0  0  0  0  0  0  0  0  0  0  0
   31.6340   37.7570   24.8540 H   0  0  0  0  0  0  0  0  0  0  0  0
   32.9990   35.1540   23.9840 H   0  0  0  0  0  0  0  0  0  0  0  0
   34.1580   33.8570   23.4140 H   0  0  0  0  0  0  0  0  0  0  0  0
   34.7580   35.2410   24.4510 H   0  0  0  0  0  0  0  0  0  0  0  0
   35.8510   36.5960   14.6910 H   0  0  0  0  0  0  0  0  0  0  0  0
   34.4920   35.7400   16.5870 H   0  0  0  0  0  0  0  0  0  0  0  0
   35.3330   37.9400   19.2820 H   0  0  0  0  0  0  0  0  0  0  0  0
   34.7630   40.0160   20.6400 H   0  0  0  0  0  0  0  0  0  0  0  0
   33.3600   40.7350   24.9410 H   0  0  0  0  0  0  0  0  0  0  0  0
   33.7520   38.1340   26.3150 H   0  0  0  0  0  0  0  0  0  0  0  0
   32.1550   36.7500   27.3050 H   0  0  0  0  0  0  0  0  0  0  0  0
   30.6600   37.7320   27.7350 H   0  0  0  0  0  0  0  0  0  0  0  0
   29.5250   36.2690   26.6700 H   0  0  0  0  0  0  0  0  0  0  0  0
   33.4300   41.8920   28.8260 H   0  0  0  0  0  0  0  0  0  0  0  0
  1  2  2  0  0  0  0
  1  8  1  0  0  0  0
  1 30  1  0  0  0  0
  2  9  1  0  0  0  0
  2 10  1  0  0  0  0
  3  4  1  0  0  0  0
  3 26  1  0  0  0  0
  3 31  1  0  0  0  0
  3 32  1  0  0  0  0
  4 29  1  0  0  0  0
  4 33  1  0  0  0  0
  4 34  1  0  0  0  0
  5 26  1  0  0  0  0
  5 27  1  0  0  0  0
  5 35  1  0  0  0  0
  5 36  1  0  0  0  0
  6 21  1  0  0  0  0
  6 37  1  0  0  0  0
  6 38  1  0  0  0  0
  6 39  1  0  0  0  0
  7  8  1  0  0  0  0
  8 12  2  0  0  0  0
 10 11  2  0  0  0  0
 10 40  1  0  0  0  0
 11 12  1  0  0  0  0
 11 41  1  0  0  0  0
 12 13  1  0  0  0  0
 13 14  1  0  0  0  0
 14 15  2  0  0  0  0
 14 19  1  0  0  0  0
 15 16  1  0  0  0  0
 15 42  1  0  0  0  0
 16 17  2  0  0  0  0
 16 22  1  0  0  0  0
 17 18  1  0  0  0  0
 17 43  1  0  0  0  0
 18 24  2  0  0  0  0
 19 20  2  0  0  0  0
 19 21  1  0  0  0  0
 21 22  1  0  0  0  0
 22 23  2  0  0  0  0
 23 24  1  0  0  0  0
 24 25  1  0  0  0  0
 25 26  1  0  0  0  0
 25 44  1  0  0  0  0
 26 45  1  0  0  0  0
 27 28  1  0  0  0  0
 27 46  1  0  0  0  0
 27 47  1  0  0  0  0
 28 48  1  0  0  0  0
 29 49  1  0  0  0  0
M  END
$$$$
