18660-1 flip
                    3D
 Schrodinger Suite 2022-3.
 52 53  0  0  1  0  0  0  0  0999 V2000
   25.2730    2.7820   31.4350 C   0  0  0  0  0  0  0  0  0  0  0  0
   23.9280    3.0130   31.1040 C   0  0  0  0  0  0  0  0  0  0  0  0
   23.5380    4.1250   30.3210 C   0  0  0  0  0  0  0  0  0  0  0  0
   24.5340    4.9970   29.8570 C   0  0  0  0  0  0  0  0  0  0  0  0
   25.8700    4.7720   30.2100 C   0  0  0  0  0  0  0  0  0  0  0  0
   26.2500    3.6660   30.9970 C   0  0  0  0  0  0  0  0  0  0  0  0
   22.0920    4.3190   29.9670 C   0  0  0  0  0  0  0  0  0  0  0  0
   21.3270    5.2490   30.8940 C   0  0  0  0  0  0  0  0  0  0  0  0
   21.8550    6.5700   30.9290 N   0  0  0  0  0  0  0  0  0  0  0  0
   21.2760    7.7170   31.5090 C   0  0  0  0  0  0  0  0  0  0  0  0
   20.3160    4.9420   31.4840 O   0  0  0  0  0  0  0  0  0  0  0  0
   21.9410    8.8710   31.1110 N   0  0  0  0  0  0  0  0  0  0  0  0
   21.4980   10.0560   31.5840 C   0  0  0  0  0  0  0  0  0  0  0  0
   20.4100   10.2030   32.4900 C   0  0  0  0  0  0  0  0  0  0  0  0
   19.6970    9.0030   32.8270 C   0  0  0  0  0  0  0  0  0  0  0  0
   20.1650    7.7510   32.3450 C   0  0  0  0  0  0  0  0  0  0  0  0
   26.9510    5.5370   29.8140 O   0  0  0  0  0  0  0  0  0  0  0  0
   26.6850    6.8720   29.3170 C   0  0  0  0  0  0  0  0  0  0  0  0
   22.8690    2.2130   31.4880 O   0  0  0  0  0  0  0  0  0  0  0  0
   23.1840    0.9910   32.2060 C   0  0  0  0  0  0  0  0  0  0  0  0
   18.5450    9.0530   33.5680 N   0  0  0  0  0  0  0  0  0  0  0  0
   20.0590   11.4830   32.9670 C   0  0  0  0  0  0  0  0  0  0  0  0
   22.0780   11.1940   31.1160 O   0  0  0  0  0  0  0  0  0  0  0  0
   22.9970   11.0350   29.9540 C   0  0  0  0  0  0  0  0  0  0  0  0
   23.6530   12.3830   29.7340 C   0  0  0  0  0  0  0  0  0  0  0  0
   19.7980   12.5510   33.3370 N   0  0  0  0  0  0  0  0  0  0  0  0
   25.5730    1.9160   32.0330 H   0  0  0  0  0  0  0  0  0  0  0  0
   24.2710    5.8350   29.2110 H   0  0  0  0  0  0  0  0  0  0  0  0
   19.6370    6.8360   32.6200 H   0  0  0  0  0  0  0  0  0  0  0  0
   21.5850    3.3110   30.0020 H   0  0  0  0  0  0  0  0  0  0  0  0
   22.0030    4.7320   28.9290 H   0  0  0  0  0  0  0  0  0  0  0  0
   22.7300    6.7620   30.4020 H   0  0  0  0  0  0  0  0  0  0  0  0
   26.2280    6.8160   28.3070 H   0  0  0  0  0  0  0  0  0  0  0  0
   27.7120    7.3070   29.2680 H   0  0  0  0  0  0  0  0  0  0  0  0
   26.0540    7.4410   30.0350 H   0  0  0  0  0  0  0  0  0  0  0  0
   23.7760    0.3150   31.5530 H   0  0  0  0  0  0  0  0  0  0  0  0
   23.7110    1.2240   33.1560 H   0  0  0  0  0  0  0  0  0  0  0  0
   22.1640    0.5910   32.4040 H   0  0  0  0  0  0  0  0  0  0  0  0
   18.0590    8.1840   33.8610 H   0  0  0  0  0  0  0  0  0  0  0  0
   18.1730    9.9420   33.9060 H   0  0  0  0  0  0  0  0  0  0  0  0
   22.3730   10.7080   29.0910 H   0  0  0  0  0  0  0  0  0  0  0  0
   23.7680   10.2710   30.2250 H   0  0  0  0  0  0  0  0  0  0  0  0
   24.2750   12.6310   30.6410 H   0  0  0  0  0  0  0  0  0  0  0  0
   24.4160   12.2010   28.9110 H   0  0  0  0  0  0  0  0  0  0  0  0
   27.3010    3.5040   31.2570 H   0  0  0  0  0  0  0  0  0  0  0  0
   22.6370   13.7580   29.3110 S   0  0  0  0  0  0  0  0  0  0  0  0
   21.4870   13.4020   28.4700 O   0  0  0  0  0  0  0  0  0  0  0  0
   23.4900   14.7920   28.6990 O   0  0  0  0  0  0  0  0  0  0  0  0
   22.0450   14.2960   30.8490 C   0  0  0  0  0  0  0  0  0  0  0  0
   21.4270   15.2280   30.7670 H   0  0  0  0  0  0  0  0  0  0  0  0
   21.4060   13.5120   31.3420 H   0  0  0  0  0  0  0  0  0  0  0  0
   22.8680   14.5260   31.5790 H   0  0  0  0  0  0  0  0  0  0  0  0
  1  2  1  0  0  0  0
  1  6  2  0  0  0  0
  1 27  1  0  0  0  0
  2  3  2  0  0  0  0
  2 19  1  0  0  0  0
  3  4  1  0  0  0  0
  3  7  1  0  0  0  0
  4  5  2  0  0  0  0
  4 28  1  0  0  0  0
  5  6  1  0  0  0  0
  5 17  1  0  0  0  0
  6 45  1  0  0  0  0
  7  8  1  0  0  0  0
  7 30  1  0  0  0  0
  7 31  1  0  0  0  0
  8  9  1  0  0  0  0
  8 11  2  0  0  0  0
  9 10  1  0  0  0  0
  9 32  1  0  0  0  0
 10 12  1  0  0  0  0
 10 16  2  0  0  0  0
 12 13  2  0  0  0  0
 13 14  1  0  0  0  0
 13 23  1  0  0  0  0
 14 15  2  0  0  0  0
 14 22  1  0  0  0  0
 15 16  1  0  0  0  0
 15 21  1  0  0  0  0
 16 29  1  0  0  0  0
 17 18  1  0  0  0  0
 18 33  1  0  0  0  0
 18 34  1  0  0  0  0
 18 35  1  0  0  0  0
 19 20  1  0  0  0  0
 20 36  1  0  0  0  0
 20 37  1  0  0  0  0
 20 38  1  0  0  0  0
 21 39  1  0  0  0  0
 21 40  1  0  0  0  0
 22 26  3  0  0  0  0
 23 24  1  0  0  0  0
 24 25  1  0  0  0  0
 24 41  1  0  0  0  0
 24 42  1  0  0  0  0
 25 43  1  0  0  0  0
 25 44  1  0  0  0  0
 25 46  1  0  0  0  0
 46 47  2  0  0  0  0
 46 48  2  0  0  0  0
 46 49  1  0  0  0  0
 49 50  1  0  0  0  0
 49 51  1  0  0  0  0
 49 52  1  0  0  0  0
M  END
$$$$
