CAT-13d
                    3D
 Schrodinger Suite 2022-3.
 43 46  0  0  1  0  0  0  0  0999 V2000
   11.7860   -2.4180    1.3070 C   0  0  0  0  0  0  0  0  0  0  0  0
   13.0640   -2.7560    0.6490 N   0  0  0  0  0  0  0  0  0  0  0  0
   14.2760   -2.7110    1.3470 C   0  0  0  0  0  0  0  0  0  0  0  0
   14.4100   -2.6590    2.7060 N   0  0  0  0  0  0  0  0  0  0  0  0
   15.3360   -2.8120    0.4580 N   0  3  0  0  0  0  0  0  0  0  0  0
   14.8580   -3.0440   -0.9560 C   0  0  1  0  0  0  0  0  0  0  0  0
   15.3810   -1.9140   -1.8250 C   0  0  0  0  0  0  0  0  0  0  0  0
   16.1810   -2.1530   -2.9470 C   0  0  0  0  0  0  0  0  0  0  0  0
   16.5940   -1.0770   -3.7440 C   0  0  0  0  0  0  0  0  0  0  0  0
   16.2450    0.2330   -3.4120 C   0  0  0  0  0  0  0  0  0  0  0  0
   15.4830    0.4850   -2.2570 C   0  0  0  0  0  0  0  0  0  0  0  0
   15.1730    1.8660   -1.8200 C   0  0  0  0  0  0  0  0  0  0  0  0
   14.5610    2.7880   -2.6810 C   0  0  0  0  0  0  0  0  0  0  0  0
   14.2950    4.0910   -2.2430 C   0  0  0  0  0  0  0  0  0  0  0  0
   14.6060    4.4810   -0.9370 C   0  0  0  0  0  0  0  0  0  0  0  0
   15.1820    3.5390   -0.0810 C   0  0  0  0  0  0  0  0  0  0  0  0
   15.4790    3.9500    1.5670 Cl  0  0  0  0  0  0  0  0  0  0  0  0
   15.4900    2.2470   -0.5050 C   0  0  0  0  0  0  0  0  0  0  0  0
   15.0360   -0.5950   -1.4850 C   0  0  0  0  0  0  0  0  0  0  0  0
   15.1130   -4.4500   -1.4690 C   0  0  0  0  0  0  0  0  0  0  0  0
   16.3350   -5.2530   -1.0480 C   0  0  0  0  0  0  0  0  0  0  0  0
   14.9630   -5.6670   -0.5650 C   0  0  0  0  0  0  0  0  0  0  0  0
   13.3030   -2.8990   -0.7970 C   0  0  0  0  0  0  0  0  0  0  0  0
   12.4170   -2.9020   -1.5910 O   0  0  0  0  0  0  0  0  0  0  0  0
   10.9320   -2.6610    0.6210 H   0  0  0  0  0  0  0  0  0  0  0  0
   11.6740   -3.0160    2.2530 H   0  0  0  0  0  0  0  0  0  0  0  0
   11.7840   -1.3240    1.5560 H   0  0  0  0  0  0  0  0  0  0  0  0
   13.6890   -2.1800    3.3010 H   0  0  0  0  0  0  0  0  0  0  0  0
   16.2970   -3.0670    0.8010 H   0  0  0  0  0  0  0  0  0  0  0  0
   16.4910   -3.1670   -3.2070 H   0  0  0  0  0  0  0  0  0  0  0  0
   17.2060   -1.2720   -4.6310 H   0  0  0  0  0  0  0  0  0  0  0  0
   16.5740    1.0620   -4.0470 H   0  0  0  0  0  0  0  0  0  0  0  0
   14.2770    2.4830   -3.6920 H   0  0  0  0  0  0  0  0  0  0  0  0
   13.8260    4.8060   -2.9300 H   0  0  0  0  0  0  0  0  0  0  0  0
   14.3890    5.4950   -0.5930 H   0  0  0  0  0  0  0  0  0  0  0  0
   15.9560    1.5270    0.1680 H   0  0  0  0  0  0  0  0  0  0  0  0
   14.4200   -0.4110   -0.6070 H   0  0  0  0  0  0  0  0  0  0  0  0
   14.7690   -4.5550   -2.5170 H   0  0  0  0  0  0  0  0  0  0  0  0
   16.8400   -5.8590   -1.8140 H   0  0  0  0  0  0  0  0  0  0  0  0
   17.0410   -4.8090   -0.3330 H   0  0  0  0  0  0  0  0  0  0  0  0
   14.7000   -5.5220    0.4900 H   0  0  0  0  0  0  0  0  0  0  0  0
   14.4990   -6.5720   -0.9890 H   0  0  0  0  0  0  0  0  0  0  0  0
   15.3840   -2.5670    3.1060 H   0  0  0  0  0  0  0  0  0  0  0  0
  1  2  1  0  0  0  0
  1 25  1  0  0  0  0
  1 26  1  0  0  0  0
  1 27  1  0  0  0  0
  2  3  1  0  0  0  0
  2 23  1  0  0  0  0
  3  4  1  0  0  0  0
  3  5  2  0  0  0  0
  4 28  1  0  0  0  0
  4 43  1  0  0  0  0
  5  6  1  0  0  0  0
  5 29  1  0  0  0  0
  6  7  1  0  0  0  0
  6 20  1  0  0  0  0
  6 23  1  0  0  0  0
  7  8  2  0  0  0  0
  7 19  1  0  0  0  0
  8  9  1  0  0  0  0
  8 30  1  0  0  0  0
  9 10  2  0  0  0  0
  9 31  1  0  0  0  0
 10 11  1  0  0  0  0
 10 32  1  0  0  0  0
 11 12  1  0  0  0  0
 11 19  2  0  0  0  0
 12 13  2  0  0  0  0
 12 18  1  0  0  0  0
 13 14  1  0  0  0  0
 13 33  1  0  0  0  0
 14 15  2  0  0  0  0
 14 34  1  0  0  0  0
 15 16  1  0  0  0  0
 15 35  1  0  0  0  0
 16 18  2  0  0  0  0
 16 17  1  0  0  0  0
 18 36  1  0  0  0  0
 19 37  1  0  0  0  0
 20 21  1  0  0  0  0
 20 22  1  0  0  0  0
 20 38  1  0  0  0  0
 21 22  1  0  0  0  0
 21 39  1  0  0  0  0
 21 40  1  0  0  0  0
 22 41  1  0  0  0  0
 22 42  1  0  0  0  0
 23 24  2  0  0  0  0
M  CHG  1   5   1
M  END
$$$$
