p38a_2j
 OpenBabel02232411163D
Structure written by MMmdl.
 48 51  0  0  0  0  0  0  0  0999 V2000
   32.1140   39.3970   27.7830 C   0  0  0  0  0  0  0  0  0  0  0  0
   32.8520   40.4190   28.6540 C   0  0  0  0  0  0  0  0  0  0  0  0
   34.9940   39.4060   28.2260 C   0  0  0  0  0  0  0  0  0  0  0  0
   34.3730   38.2990   27.3730 C   0  0  0  0  0  0  0  0  0  0  0  0
   35.9780   34.7550   15.8560 C   0  0  0  0  0  0  0  0  0  0  0  0
   34.0610   39.8780   29.2270 O   0  0  0  0  0  0  0  0  0  0  0  0
   34.8700   35.7680   21.2350 C   0  0  0  0  0  0  0  0  0  0  0  0
   36.4940   35.4230   16.9670 C   0  0  0  0  0  0  0  0  0  0  0  0
   33.6420   39.2530   24.3560 C   0  0  0  0  0  0  0  0  0  0  0  0
   33.0320   38.7260   26.7400 C   0  0  0  0  0  0  0  0  0  0  0  0
   34.5190   38.5280   21.8510 C   0  0  0  0  0  0  0  0  0  0  0  0
   35.1630   38.1370   20.6340 C   0  0  0  0  0  0  0  0  0  0  0  0
   33.7600   34.9610   16.8830 C   0  0  0  0  0  0  0  0  0  0  0  0
   34.3250   35.6360   17.9680 C   0  0  0  0  0  0  0  0  0  0  0  0
   34.2030   37.5450   22.8380 C   0  0  0  0  0  0  0  0  0  0  0  0
   34.2710   39.8860   22.1820 C   0  0  0  0  0  0  0  0  0  0  0  0
   35.4310   36.8290   20.3840 C   0  0  0  0  0  0  0  0  0  0  0  0
   35.7100   35.8330   18.0620 C   0  0  0  0  0  0  0  0  0  0  0  0
   33.9590   35.1680   23.5320 C   0  0  0  0  0  0  0  0  0  0  0  0
   37.8120   35.6300   16.9940 F   0  0  0  0  0  0  0  0  0  0  0  0
   36.3640   36.4150   19.2820 C   0  0  0  0  0  0  0  0  0  0  0  0
   33.8730   40.2690   23.3980 N   0  0  0  0  0  0  0  0  0  0  0  0
   34.7820   34.5850   20.9680 O   0  0  0  0  0  0  0  0  0  0  0  0
   34.3440   36.1940   22.5240 N   0  0  0  0  0  0  0  0  0  0  0  0
   33.7640   37.9030   24.0930 N   0  0  0  0  0  0  0  0  0  0  0  0
   33.2300   39.6710   25.5950 N   0  0  0  0  0  0  0  0  0  0  0  0
   31.6840   38.5900   28.4280 H   0  0  0  0  0  0  0  0  0  0  0  0
   31.2640   39.9030   27.2650 H   0  0  0  0  0  0  0  0  0  0  0  0
   33.1130   41.3270   28.0650 H   0  0  0  0  0  0  0  0  0  0  0  0
   32.2540   40.6860   29.5560 H   0  0  0  0  0  0  0  0  0  0  0  0
   35.8330   39.0180   28.8490 H   0  0  0  0  0  0  0  0  0  0  0  0
   35.3120   40.2690   27.5980 H   0  0  0  0  0  0  0  0  0  0  0  0
   35.0960   37.9890   26.5790 H   0  0  0  0  0  0  0  0  0  0  0  0
   34.1740   37.3970   28.0080 H   0  0  0  0  0  0  0  0  0  0  0  0
   36.6210   34.4530   15.0260 H   0  0  0  0  0  0  0  0  0  0  0  0
   32.5120   37.8070   26.3400 H   0  0  0  0  0  0  0  0  0  0  0  0
   35.4670   38.9360   19.9470 H   0  0  0  0  0  0  0  0  0  0  0  0
   32.6820   34.7840   16.8510 H   0  0  0  0  0  0  0  0  0  0  0  0
   33.6660   36.0100   18.7580 H   0  0  0  0  0  0  0  0  0  0  0  0
   34.4100   40.6680   21.4180 H   0  0  0  0  0  0  0  0  0  0  0  0
   34.5410   35.3240   24.4810 H   0  0  0  0  0  0  0  0  0  0  0  0
   32.8650   35.2510   23.7680 H   0  0  0  0  0  0  0  0  0  0  0  0
   34.1720   34.1420   23.1340 H   0  0  0  0  0  0  0  0  0  0  0  0
   33.2070   40.6900   25.7990 H   0  0  0  0  0  0  0  0  0  0  0  0
   36.9740   37.3090   18.9780 H   0  0  0  0  0  0  0  0  0  0  0  0
   37.0800   35.6560   19.7040 H   0  0  0  0  0  0  0  0  0  0  0  0
   34.6010   34.5160   15.8630 C   0  0  0  0  0  0  0  0  0  0  0  0
   34.0740   33.7880   14.8810 F   0  0  0  0  0  0  0  0  0  0  0  0
  1  2  1  0  0  0  0
  1 10  1  0  0  0  0
  1 27  1  0  0  0  0
  1 28  1  0  0  0  0
  2  6  1  0  0  0  0
  2 29  1  0  0  0  0
  2 30  1  0  0  0  0
  3  4  1  0  0  0  0
  3  6  1  0  0  0  0
  3 31  1  0  0  0  0
  3 32  1  0  0  0  0
  4 10  1  0  0  0  0
  4 33  1  0  0  0  0
  4 34  1  0  0  0  0
  5  8  2  0  0  0  0
  5 35  1  0  0  0  0
  5 47  1  0  0  0  0
  7 17  1  0  0  0  0
  7 23  2  0  0  0  0
  7 24  1  0  0  0  0
  8 18  1  0  0  0  0
  8 20  1  0  0  0  0
  9 22  2  0  0  0  0
  9 25  1  0  0  0  0
  9 26  1  0  0  0  0
 10 26  1  0  0  0  0
 10 36  1  0  0  0  0
 11 12  1  0  0  0  0
 11 15  1  0  0  0  0
 11 16  2  0  0  0  0
 12 17  2  0  0  0  0
 12 37  1  0  0  0  0
 13 14  1  0  0  0  0
 13 38  1  0  0  0  0
 13 47  2  0  0  0  0
 14 18  2  0  0  0  0
 14 39  1  0  0  0  0
 15 24  1  0  0  0  0
 15 25  2  0  0  0  0
 16 22  1  0  0  0  0
 16 40  1  0  0  0  0
 17 21  1  0  0  0  0
 18 21  1  0  0  0  0
 19 24  1  0  0  0  0
 19 41  1  0  0  0  0
 19 42  1  0  0  0  0
 19 43  1  0  0  0  0
 21 45  1  0  0  0  0
 21 46  1  0  0  0  0
 26 44  1  0  0  0  0
 47 48  1  0  0  0  0
M  END
$$$$
