18627-1
                    3D
 Schrodinger Suite 2022-3.
 38 39  0  0  1  0  0  0  0  0999 V2000
   25.8570    4.9220   30.2260 C   0  0  0  0  0  0  0  0  0  0  0  0
   24.5100    4.9630   29.8570 C   0  0  0  0  0  0  0  0  0  0  0  0
   23.5660    4.1530   30.5100 C   0  0  0  0  0  0  0  0  0  0  0  0
   23.9920    3.2680   31.5130 C   0  0  0  0  0  0  0  0  0  0  0  0
   25.3360    3.2170   31.8910 C   0  0  0  0  0  0  0  0  0  0  0  0
   26.2500    4.0530   31.2460 C   0  0  0  0  0  0  0  0  0  0  0  0
   22.1100    4.2200   30.1380 C   0  0  0  0  0  0  0  0  0  0  0  0
   21.3080    5.2280   30.9480 C   0  0  0  0  0  0  0  0  0  0  0  0
   21.8600    6.5300   30.9580 N   0  0  0  0  0  0  0  0  0  0  0  0
   21.2880    7.6930   31.5280 C   0  0  0  0  0  0  0  0  0  0  0  0
   20.2520    4.9660   31.4850 O   0  0  0  0  0  0  0  0  0  0  0  0
   22.0200    8.8260   31.2100 N   0  0  0  0  0  0  0  0  0  0  0  0
   21.5450   10.0180   31.6400 C   0  0  0  0  0  0  0  0  0  0  0  0
   20.3650   10.1810   32.4260 C   0  0  0  0  0  0  0  0  0  0  0  0
   19.6470    8.9880   32.7600 C   0  0  0  0  0  0  0  0  0  0  0  0
   20.1300    7.7340   32.2970 C   0  0  0  0  0  0  0  0  0  0  0  0
   18.4940    9.0360   33.5000 N   0  0  0  0  0  0  0  0  0  0  0  0
   19.9620   11.4830   32.7930 C   0  0  0  0  0  0  0  0  0  0  0  0
   22.1880   11.1570   31.3040 O   0  0  0  0  0  0  0  0  0  0  0  0
   23.4520   11.0840   30.5390 C   0  0  0  0  0  0  0  0  0  0  0  0
   23.1710   10.8720   29.0670 C   0  0  0  0  0  0  0  0  0  0  0  0
   27.9080    4.0060   31.7120 Cl  0  0  0  0  0  0  0  0  0  0  0  0
   19.6840   12.5790   33.0540 N   0  0  0  0  0  0  0  0  0  0  0  0
   26.5850    5.5650   29.7190 H   0  0  0  0  0  0  0  0  0  0  0  0
   23.2800    2.5970   32.0000 H   0  0  0  0  0  0  0  0  0  0  0  0
   19.5760    6.8230   32.5340 H   0  0  0  0  0  0  0  0  0  0  0  0
   21.6520    3.2040   30.2840 H   0  0  0  0  0  0  0  0  0  0  0  0
   21.9990    4.4990   29.0580 H   0  0  0  0  0  0  0  0  0  0  0  0
   22.7570    6.6880   30.4580 H   0  0  0  0  0  0  0  0  0  0  0  0
   18.0010    8.1670   33.7800 H   0  0  0  0  0  0  0  0  0  0  0  0
   18.0980    9.9240   33.8090 H   0  0  0  0  0  0  0  0  0  0  0  0
   24.1010   10.2870   30.9660 H   0  0  0  0  0  0  0  0  0  0  0  0
   23.8440   12.1090   30.7510 H   0  0  0  0  0  0  0  0  0  0  0  0
   24.1190   11.0030   28.4890 H   0  0  0  0  0  0  0  0  0  0  0  0
   22.7890    9.8430   28.8700 H   0  0  0  0  0  0  0  0  0  0  0  0
   22.4300   11.6090   28.6840 H   0  0  0  0  0  0  0  0  0  0  0  0
   25.6610    2.5250   32.6760 H   0  0  0  0  0  0  0  0  0  0  0  0
   24.2120    5.6370   29.0490 H   0  0  0  0  0  0  0  0  0  0  0  0
  1  2  1  0  0  0  0
  1  6  2  0  0  0  0
  1 24  1  0  0  0  0
  2  3  2  0  0  0  0
  2 38  1  0  0  0  0
  3  4  1  0  0  0  0
  3  7  1  0  0  0  0
  4  5  2  0  0  0  0
  4 25  1  0  0  0  0
  5  6  1  0  0  0  0
  5 37  1  0  0  0  0
  6 22  1  0  0  0  0
  7  8  1  0  0  0  0
  7 27  1  0  0  0  0
  7 28  1  0  0  0  0
  8  9  1  0  0  0  0
  8 11  2  0  0  0  0
  9 10  1  0  0  0  0
  9 29  1  0  0  0  0
 10 12  1  0  0  0  0
 10 16  2  0  0  0  0
 12 13  2  0  0  0  0
 13 14  1  0  0  0  0
 13 19  1  0  0  0  0
 14 15  2  0  0  0  0
 14 18  1  0  0  0  0
 15 16  1  0  0  0  0
 15 17  1  0  0  0  0
 16 26  1  0  0  0  0
 17 30  1  0  0  0  0
 17 31  1  0  0  0  0
 18 23  3  0  0  0  0
 19 20  1  0  0  0  0
 20 21  1  0  0  0  0
 20 32  1  0  0  0  0
 20 33  1  0  0  0  0
 21 34  1  0  0  0  0
 21 35  1  0  0  0  0
 21 36  1  0  0  0  0
M  END
$$$$
