p38a_2y
 OpenBabel02232411163D
Structure written by MMmdl.
 45 47  0  0  0  0  0  0  0  0999 V2000
   38.3140   36.5490   17.1560 C   0  0  0  0  0  0  0  0  0  0  0  0
   34.4360   35.0380   21.1390 C   0  0  0  0  0  0  0  0  0  0  0  0
   37.5330   36.0800   18.2090 C   0  0  0  0  0  0  0  0  0  0  0  0
   33.5320   39.1160   23.5740 C   0  0  0  0  0  0  0  0  0  0  0  0
   32.6500   39.0770   25.9210 C   0  0  0  0  0  0  0  0  0  0  0  0
   34.5010   37.9190   21.2910 C   0  0  0  0  0  0  0  0  0  0  0  0
   35.0170   37.2610   20.1210 C   0  0  0  0  0  0  0  0  0  0  0  0
   37.6670   36.7020   15.9220 C   0  0  0  0  0  0  0  0  0  0  0  0
   36.3230   36.3840   15.7110 C   0  0  0  0  0  0  0  0  0  0  0  0
   35.5650   35.8970   16.7810 C   0  0  0  0  0  0  0  0  0  0  0  0
   33.9890   37.1470   22.3760 C   0  0  0  0  0  0  0  0  0  0  0  0
   34.4940   39.3300   21.4460 C   0  0  0  0  0  0  0  0  0  0  0  0
   35.0010   35.9100   20.0730 C   0  0  0  0  0  0  0  0  0  0  0  0
   36.1770   35.7350   18.0260 C   0  0  0  0  0  0  0  0  0  0  0  0
   33.4280   34.9700   23.4530 C   0  0  0  0  0  0  0  0  0  0  0  0
   38.0590   35.9550   19.4200 F   0  0  0  0  0  0  0  0  0  0  0  0
   35.4730   35.0890   19.0520 O   0  0  0  0  0  0  0  0  0  0  0  0
   34.0450   39.9390   22.5550 N   0  0  0  0  0  0  0  0  0  0  0  0
   34.3550   33.8300   21.0900 O   0  0  0  0  0  0  0  0  0  0  0  0
   33.9660   35.7450   22.3000 N   0  0  0  0  0  0  0  0  0  0  0  0
   33.5120   37.7410   23.5210 N   0  0  0  0  0  0  0  0  0  0  0  0
   32.9240   39.7670   24.6390 N   0  0  0  0  0  0  0  0  0  0  0  0
   39.3630   36.8230   17.2950 H   0  0  0  0  0  0  0  0  0  0  0  0
   32.4910   37.9750   25.7520 H   0  0  0  0  0  0  0  0  0  0  0  0
   35.4100   37.8810   19.3130 H   0  0  0  0  0  0  0  0  0  0  0  0
   35.8540   36.5250   14.7350 H   0  0  0  0  0  0  0  0  0  0  0  0
   34.5050   35.6630   16.6360 H   0  0  0  0  0  0  0  0  0  0  0  0
   34.8720   39.9760   20.6360 H   0  0  0  0  0  0  0  0  0  0  0  0
   34.0020   35.2230   24.3870 H   0  0  0  0  0  0  0  0  0  0  0  0
   32.3490   35.2320   23.6210 H   0  0  0  0  0  0  0  0  0  0  0  0
   33.5150   33.8700   23.2580 H   0  0  0  0  0  0  0  0  0  0  0  0
   33.1440   40.7750   24.7600 H   0  0  0  0  0  0  0  0  0  0  0  0
   38.3600   37.2150   14.9090 F   0  0  0  0  0  0  0  0  0  0  0  0
   33.7680   39.2680   26.9990 C   0  0  0  0  0  0  0  0  0  0  0  0
   31.6850   39.5100   26.3060 H   0  0  0  0  0  0  0  0  0  0  0  0
   35.1720   39.0400   26.4310 C   0  0  0  0  0  0  0  0  0  0  0  0
   33.7040   40.6170   27.5300 O   0  0  0  0  0  0  0  0  0  0  0  0
   33.4720   38.3800   28.2090 C   0  0  0  0  0  0  0  0  0  0  0  0
   33.6490   41.2730   26.7750 H   0  0  0  0  0  0  0  0  0  0  0  0
   35.9260   39.0880   27.2500 H   0  0  0  0  0  0  0  0  0  0  0  0
   35.2360   38.0340   25.9580 H   0  0  0  0  0  0  0  0  0  0  0  0
   35.4230   39.8180   25.6820 H   0  0  0  0  0  0  0  0  0  0  0  0
   34.1620   38.6250   29.0510 H   0  0  0  0  0  0  0  0  0  0  0  0
   32.4250   38.5220   28.5660 H   0  0  0  0  0  0  0  0  0  0  0  0
   33.6120   37.3050   27.9430 H   0  0  0  0  0  0  0  0  0  0  0  0
  1  3  2  0  0  0  0
  1  8  1  0  0  0  0
  1 23  1  0  0  0  0
  2 13  1  0  0  0  0
  2 19  2  0  0  0  0
  2 20  1  0  0  0  0
  3 14  1  0  0  0  0
  3 16  1  0  0  0  0
  4 18  2  0  0  0  0
  4 21  1  0  0  0  0
  4 22  1  0  0  0  0
  5 22  1  0  0  0  0
  5 24  1  0  0  0  0
  5 34  1  0  0  0  0
  5 35  1  0  0  0  0
  6  7  1  0  0  0  0
  6 11  1  0  0  0  0
  6 12  2  0  0  0  0
  7 13  2  0  0  0  0
  7 25  1  0  0  0  0
  8  9  2  0  0  0  0
  8 33  1  0  0  0  0
  9 10  1  0  0  0  0
  9 26  1  0  0  0  0
 10 14  2  0  0  0  0
 10 27  1  0  0  0  0
 11 20  1  0  0  0  0
 11 21  2  0  0  0  0
 12 18  1  0  0  0  0
 12 28  1  0  0  0  0
 13 17  1  0  0  0  0
 14 17  1  0  0  0  0
 15 20  1  0  0  0  0
 15 29  1  0  0  0  0
 15 30  1  0  0  0  0
 15 31  1  0  0  0  0
 22 32  1  0  0  0  0
 34 36  1  0  0  0  0
 34 37  1  0  0  0  0
 34 38  1  0  0  0  0
 36 40  1  0  0  0  0
 36 41  1  0  0  0  0
 36 42  1  0  0  0  0
 37 39  1  0  0  0  0
 38 43  1  0  0  0  0
 38 44  1  0  0  0  0
 38 45  1  0  0  0  0
M  END
$$$$
