p38a_2y
 OpenBabel02232411163D
Structure written by MMmdl.
 45 47  0  0  0  0  0  0  0  0999 V2000
   38.2950   36.5520   17.1540 C   0  0  0  0  0  0  0  0  0  0  0  0
   34.3430   35.0870   21.1020 C   0  0  0  0  0  0  0  0  0  0  0  0
   37.5070   36.0870   18.2040 C   0  0  0  0  0  0  0  0  0  0  0  0
   33.5500   39.1700   23.5770 C   0  0  0  0  0  0  0  0  0  0  0  0
   32.4940   39.1190   25.8540 C   0  0  0  0  0  0  0  0  0  0  0  0
   34.4980   37.9610   21.2870 C   0  0  0  0  0  0  0  0  0  0  0  0
   35.0200   37.2990   20.1230 C   0  0  0  0  0  0  0  0  0  0  0  0
   37.6520   36.7200   15.9200 C   0  0  0  0  0  0  0  0  0  0  0  0
   36.3040   36.4210   15.7060 C   0  0  0  0  0  0  0  0  0  0  0  0
   35.5380   35.9380   16.7730 C   0  0  0  0  0  0  0  0  0  0  0  0
   33.9050   37.2010   22.3380 C   0  0  0  0  0  0  0  0  0  0  0  0
   34.5620   39.3680   21.4690 C   0  0  0  0  0  0  0  0  0  0  0  0
   34.9600   35.9490   20.0580 C   0  0  0  0  0  0  0  0  0  0  0  0
   36.1470   35.7620   18.0180 C   0  0  0  0  0  0  0  0  0  0  0  0
   33.1720   35.0360   23.3360 C   0  0  0  0  0  0  0  0  0  0  0  0
   38.0320   35.9460   19.4140 F   0  0  0  0  0  0  0  0  0  0  0  0
   35.4330   35.1230   19.0410 O   0  0  0  0  0  0  0  0  0  0  0  0
   34.1270   39.9820   22.5780 N   0  0  0  0  0  0  0  0  0  0  0  0
   34.2650   33.8780   21.0570 O   0  0  0  0  0  0  0  0  0  0  0  0
   33.8130   35.8020   22.2310 N   0  0  0  0  0  0  0  0  0  0  0  0
   33.4270   37.7980   23.4780 N   0  0  0  0  0  0  0  0  0  0  0  0
   33.0140   39.8260   24.6650 N   0  0  0  0  0  0  0  0  0  0  0  0
   39.3480   36.8130   17.2950 H   0  0  0  0  0  0  0  0  0  0  0  0
   32.0650   38.1240   25.5580 H   0  0  0  0  0  0  0  0  0  0  0  0
   35.4560   37.9140   19.3330 H   0  0  0  0  0  0  0  0  0  0  0  0
   35.8370   36.5730   14.7300 H   0  0  0  0  0  0  0  0  0  0  0  0
   34.4760   35.7190   16.6260 H   0  0  0  0  0  0  0  0  0  0  0  0
   34.9890   40.0030   20.6760 H   0  0  0  0  0  0  0  0  0  0  0  0
   33.7660   35.1540   24.2820 H   0  0  0  0  0  0  0  0  0  0  0  0
   32.1330   35.4250   23.5160 H   0  0  0  0  0  0  0  0  0  0  0  0
   33.1140   33.9480   23.0720 H   0  0  0  0  0  0  0  0  0  0  0  0
   33.2840   40.8140   24.8410 H   0  0  0  0  0  0  0  0  0  0  0  0
   38.3530   37.2280   14.9100 F   0  0  0  0  0  0  0  0  0  0  0  0
   33.5620   38.9150   26.9800 C   0  0  0  0  0  0  0  0  0  0  0  0
   31.6620   39.7600   26.2580 H   0  0  0  0  0  0  0  0  0  0  0  0
   34.0930   40.2340   27.5380 C   0  0  0  0  0  0  0  0  0  0  0  0
   32.8380   38.3380   28.0990 O   0  0  0  0  0  0  0  0  0  0  0  0
   34.6830   37.9660   26.5570 C   0  0  0  0  0  0  0  0  0  0  0  0
   32.5700   37.4090   27.8950 H   0  0  0  0  0  0  0  0  0  0  0  0
   34.6770   40.0550   28.4690 H   0  0  0  0  0  0  0  0  0  0  0  0
   34.7540   40.7340   26.7950 H   0  0  0  0  0  0  0  0  0  0  0  0
   33.2530   40.9260   27.7750 H   0  0  0  0  0  0  0  0  0  0  0  0
   35.2600   37.6460   27.4530 H   0  0  0  0  0  0  0  0  0  0  0  0
   34.2770   37.0580   26.0540 H   0  0  0  0  0  0  0  0  0  0  0  0
   35.3800   38.4720   25.8540 H   0  0  0  0  0  0  0  0  0  0  0  0
  1  3  2  0  0  0  0
  1  8  1  0  0  0  0
  1 23  1  0  0  0  0
  2 13  1  0  0  0  0
  2 19  2  0  0  0  0
  2 20  1  0  0  0  0
  3 14  1  0  0  0  0
  3 16  1  0  0  0  0
  4 18  2  0  0  0  0
  4 21  1  0  0  0  0
  4 22  1  0  0  0  0
  5 22  1  0  0  0  0
  5 24  1  0  0  0  0
  5 34  1  0  0  0  0
  5 35  1  0  0  0  0
  6  7  1  0  0  0  0
  6 11  1  0  0  0  0
  6 12  2  0  0  0  0
  7 13  2  0  0  0  0
  7 25  1  0  0  0  0
  8  9  2  0  0  0  0
  8 33  1  0  0  0  0
  9 10  1  0  0  0  0
  9 26  1  0  0  0  0
 10 14  2  0  0  0  0
 10 27  1  0  0  0  0
 11 20  1  0  0  0  0
 11 21  2  0  0  0  0
 12 18  1  0  0  0  0
 12 28  1  0  0  0  0
 13 17  1  0  0  0  0
 14 17  1  0  0  0  0
 15 20  1  0  0  0  0
 15 29  1  0  0  0  0
 15 30  1  0  0  0  0
 15 31  1  0  0  0  0
 22 32  1  0  0  0  0
 34 36  1  0  0  0  0
 34 37  1  0  0  0  0
 34 38  1  0  0  0  0
 36 40  1  0  0  0  0
 36 41  1  0  0  0  0
 36 42  1  0  0  0  0
 37 39  1  0  0  0  0
 38 43  1  0  0  0  0
 38 44  1  0  0  0  0
 38 45  1  0  0  0  0
M  END
$$$$
