32
                    3D
 Schrodinger Suite 2022-3.
 54 57  0  0  1  0  0  0  0  0999 V2000
    2.0770   28.8710    6.6760 C   0  0  0  0  0  0  0  0  0  0  0  0
   -1.4100   31.4840    7.7890 C   0  0  0  0  0  0  0  0  0  0  0  0
    0.0420   26.0800    8.9510 C   0  0  0  0  0  0  0  0  0  0  0  0
   -0.8980   25.4810   10.0070 C   0  0  0  0  0  0  0  0  0  0  0  0
   -0.8370   23.9420    9.8890 C   0  0  0  0  0  0  0  0  0  0  0  0
   -1.6870   23.2770   10.9810 C   0  0  0  0  0  0  0  0  0  0  0  0
   -1.2660   23.7410   12.3840 C   0  0  0  0  0  0  0  0  0  0  0  0
   -1.3430   25.2720   12.5080 C   0  0  0  0  0  0  0  0  0  0  0  0
   -0.5100   25.9620   11.4190 C   0  0  0  0  0  0  0  0  0  0  0  0
    5.3350   25.8240    4.6120 C   0  0  0  0  0  0  0  0  0  0  0  0
    5.1730   24.7400    5.5020 C   0  0  0  0  0  0  0  0  0  0  0  0
    4.4760   24.9990    6.7020 C   0  0  0  0  0  0  0  0  0  0  0  0
    3.8390   26.2360    6.9540 C   0  0  0  0  0  0  0  0  0  0  0  0
    1.3840   27.9280    7.4270 N   0  0  0  0  0  0  0  0  0  0  0  0
    0.1820   28.2790    7.9650 C   0  0  0  0  0  0  0  0  0  0  0  0
   -0.5320   27.4220    8.7030 O   0  0  0  0  0  0  0  0  0  0  0  0
   -0.3460   29.5820    7.7700 C   0  0  0  0  0  0  0  0  0  0  0  0
   -1.5090   30.2230    8.2170 N   0  0  0  0  0  0  0  0  0  0  0  0
   -0.1840   31.7230    7.0740 N   0  0  0  0  0  0  0  0  0  0  0  0
    0.4870   30.5060    7.0230 C   0  0  0  0  0  0  0  0  0  0  0  0
    1.6830   30.1770    6.4380 N   0  0  0  0  0  0  0  0  0  0  0  0
    3.2910   28.5120    6.0770 N   0  0  0  0  0  0  0  0  0  0  0  0
    3.9280   27.2440    5.9980 C   0  0  0  0  0  0  0  0  0  0  0  0
    4.7550   27.0510    4.8540 C   0  0  0  0  0  0  0  0  0  0  0  0
   -2.1290   32.2850    7.9390 H   0  0  0  0  0  0  0  0  0  0  0  0
   -0.0120   25.5400    7.9870 H   0  0  0  0  0  0  0  0  0  0  0  0
    1.0830   26.2000    9.3210 H   0  0  0  0  0  0  0  0  0  0  0  0
   -1.9440   25.8190    9.7930 H   0  0  0  0  0  0  0  0  0  0  0  0
    0.2210   23.6010    9.9950 H   0  0  0  0  0  0  0  0  0  0  0  0
   -1.2210   23.6290    8.8920 H   0  0  0  0  0  0  0  0  0  0  0  0
   -1.5810   22.1700   10.9150 H   0  0  0  0  0  0  0  0  0  0  0  0
   -2.7550   23.5450   10.8190 H   0  0  0  0  0  0  0  0  0  0  0  0
   -0.2200   23.4110   12.5840 H   0  0  0  0  0  0  0  0  0  0  0  0
   -1.9350   23.2750   13.1440 H   0  0  0  0  0  0  0  0  0  0  0  0
   -0.9490   25.5740   13.5060 H   0  0  0  0  0  0  0  0  0  0  0  0
   -2.4080   25.5940   12.4390 H   0  0  0  0  0  0  0  0  0  0  0  0
   -0.6590   27.0640   11.4860 H   0  0  0  0  0  0  0  0  0  0  0  0
    0.5680   25.7390   11.6070 H   0  0  0  0  0  0  0  0  0  0  0  0
    3.2530   26.4020    7.8580 H   0  0  0  0  0  0  0  0  0  0  0  0
    0.0420   32.5930    6.5730 H   0  0  0  0  0  0  0  0  0  0  0  0
    3.7080   29.2340    5.4280 H   0  0  0  0  0  0  0  0  0  0  0  0
    4.9140   27.8640    4.1480 H   0  0  0  0  0  0  0  0  0  0  0  0
    5.7170   23.2020    4.9750 S   0  0  0  0  0  0  0  0  0  0  0  0
    5.5620   22.1990    6.0470 O   0  0  0  0  0  0  0  0  0  0  0  0
    7.0790   23.2490    4.4200 O   0  0  0  0  0  0  0  0  0  0  0  0
    4.3770   21.7830    3.6050 H   0  0  0  0  0  0  0  0  0  0  0  0
    4.5940   22.7790    3.7630 N   0  0  0  0  0  0  0  0  0  0  0  0
    4.5930   23.3010    2.8650 H   0  0  0  0  0  0  0  0  0  0  0  0
    4.4790   23.9620    7.5870 O   0  0  0  0  0  0  0  0  0  0  0  0
    3.6640   24.0870    8.7880 C   0  0  0  0  0  0  0  0  0  0  0  0
    3.8850   23.1310    9.3170 H   0  0  0  0  0  0  0  0  0  0  0  0
    3.9980   24.9520    9.4000 H   0  0  0  0  0  0  0  0  0  0  0  0
    2.5930   24.1520    8.5090 H   0  0  0  0  0  0  0  0  0  0  0  0
    5.9160   25.7030    3.6870 H   0  0  0  0  0  0  0  0  0  0  0  0
  1 14  1  0  0  0  0
  1 21  2  0  0  0  0
  1 22  1  0  0  0  0
  2 18  2  0  0  0  0
  2 19  1  0  0  0  0
  2 25  1  0  0  0  0
  3  4  1  0  0  0  0
  3 16  1  0  0  0  0
  3 26  1  0  0  0  0
  3 27  1  0  0  0  0
  4  5  1  0  0  0  0
  4  9  1  0  0  0  0
  4 28  1  0  0  0  0
  5  6  1  0  0  0  0
  5 29  1  0  0  0  0
  5 30  1  0  0  0  0
  6  7  1  0  0  0  0
  6 31  1  0  0  0  0
  6 32  1  0  0  0  0
  7  8  1  0  0  0  0
  7 33  1  0  0  0  0
  7 34  1  0  0  0  0
  8  9  1  0  0  0  0
  8 35  1  0  0  0  0
  8 36  1  0  0  0  0
  9 37  1  0  0  0  0
  9 38  1  0  0  0  0
 10 11  1  0  0  0  0
 10 24  2  0  0  0  0
 10 54  1  0  0  0  0
 11 12  2  0  0  0  0
 11 43  1  0  0  0  0
 12 13  1  0  0  0  0
 12 49  1  0  0  0  0
 13 23  2  0  0  0  0
 13 39  1  0  0  0  0
 14 15  2  0  0  0  0
 15 16  1  0  0  0  0
 15 17  1  0  0  0  0
 17 18  1  0  0  0  0
 17 20  2  0  0  0  0
 19 20  1  0  0  0  0
 19 40  1  0  0  0  0
 20 21  1  0  0  0  0
 22 23  1  0  0  0  0
 22 41  1  0  0  0  0
 23 24  1  0  0  0  0
 24 42  1  0  0  0  0
 43 44  2  0  0  0  0
 43 45  2  0  0  0  0
 43 47  1  0  0  0  0
 46 47  1  0  0  0  0
 47 48  1  0  0  0  0
 49 50  1  0  0  0  0
 50 51  1  0  0  0  0
 50 52  1  0  0  0  0
 50 53  1  0  0  0  0
M  END
$$$$
