p38a_3flw
 OpenBabel02232411163D
Structure written by MMmdl.
 49 51  0  0  0  0  0  0  0  0999 V2000
   38.2820   36.5400   17.1580 C   0  0  0  0  0  0  0  0  0  0  0  0
   37.6430   36.6980   15.9210 C   0  0  0  0  0  0  0  0  0  0  0  0
   33.1040   39.9120   27.4290 C   0  0  0  0  0  0  0  0  0  0  0  0
   34.4260   40.4960   27.9450 C   0  0  0  0  0  0  0  0  0  0  0  0
   31.8680   38.4960   25.7290 C   0  0  0  0  0  0  0  0  0  0  0  0
   34.1520   34.9250   23.7240 C   0  0  0  0  0  0  0  0  0  0  0  0
   38.0180   35.9470   19.4200 F   0  0  0  0  0  0  0  0  0  0  0  0
   37.4920   36.0840   18.2090 C   0  0  0  0  0  0  0  0  0  0  0  0
   38.3480   37.2000   14.9100 F   0  0  0  0  0  0  0  0  0  0  0  0
   36.2970   36.3970   15.7050 C   0  0  0  0  0  0  0  0  0  0  0  0
   35.5260   35.9290   16.7750 C   0  0  0  0  0  0  0  0  0  0  0  0
   36.1290   35.7650   18.0250 C   0  0  0  0  0  0  0  0  0  0  0  0
   35.3900   35.1450   19.0410 O   0  0  0  0  0  0  0  0  0  0  0  0
   35.0820   35.9440   20.1400 C   0  0  0  0  0  0  0  0  0  0  0  0
   35.1280   37.2940   20.2150 C   0  0  0  0  0  0  0  0  0  0  0  0
   34.8100   37.9260   21.4670 C   0  0  0  0  0  0  0  0  0  0  0  0
   34.7750   39.3340   21.6350 C   0  0  0  0  0  0  0  0  0  0  0  0
   34.4990   39.9220   22.8110 N   0  0  0  0  0  0  0  0  0  0  0  0
   34.6430   35.0590   21.2520 C   0  0  0  0  0  0  0  0  0  0  0  0
   34.4430   33.8670   21.1680 O   0  0  0  0  0  0  0  0  0  0  0  0
   34.4560   35.7320   22.5100 N   0  0  0  0  0  0  0  0  0  0  0  0
   34.5160   37.1310   22.6150 C   0  0  0  0  0  0  0  0  0  0  0  0
   34.2540   37.7020   23.8360 N   0  0  0  0  0  0  0  0  0  0  0  0
   34.2520   39.0770   23.9080 C   0  0  0  0  0  0  0  0  0  0  0  0
   34.0300   39.6880   25.1390 N   0  0  0  0  0  0  0  0  0  0  0  0
   33.2610   38.9750   26.2120 C   0  0  0  0  0  0  0  0  0  0  0  0
   31.1970   39.4650   24.7490 C   0  0  0  0  0  0  0  0  0  0  0  0
   29.8650   39.0110   24.4650 O   0  0  0  0  0  0  0  0  0  0  0  0
   34.2080   41.2070   29.1800 O   0  0  0  0  0  0  0  0  0  0  0  0
   39.3360   36.7990   17.3000 H   0  0  0  0  0  0  0  0  0  0  0  0
   32.6260   39.3220   28.2520 H   0  0  0  0  0  0  0  0  0  0  0  0
   32.4260   40.7560   27.1630 H   0  0  0  0  0  0  0  0  0  0  0  0
   35.1500   39.6970   28.2240 H   0  0  0  0  0  0  0  0  0  0  0  0
   34.8600   41.2130   27.2110 H   0  0  0  0  0  0  0  0  0  0  0  0
   31.9810   37.4950   25.2420 H   0  0  0  0  0  0  0  0  0  0  0  0
   31.2090   38.3490   26.6190 H   0  0  0  0  0  0  0  0  0  0  0  0
   34.8440   35.2120   24.5630 H   0  0  0  0  0  0  0  0  0  0  0  0
   33.0960   35.1160   24.0590 H   0  0  0  0  0  0  0  0  0  0  0  0
   34.2790   33.8330   23.5060 H   0  0  0  0  0  0  0  0  0  0  0  0
   35.8340   36.5380   14.7260 H   0  0  0  0  0  0  0  0  0  0  0  0
   34.4630   35.7100   16.6260 H   0  0  0  0  0  0  0  0  0  0  0  0
   35.4050   37.9290   19.3700 H   0  0  0  0  0  0  0  0  0  0  0  0
   34.9560   39.9960   20.7730 H   0  0  0  0  0  0  0  0  0  0  0  0
   33.8690   40.7200   25.1270 H   0  0  0  0  0  0  0  0  0  0  0  0
   33.8690   38.0760   26.5190 H   0  0  0  0  0  0  0  0  0  0  0  0
   31.1690   40.4990   25.1580 H   0  0  0  0  0  0  0  0  0  0  0  0
   31.6790   39.4370   23.7470 H   0  0  0  0  0  0  0  0  0  0  0  0
   29.2290   39.5500   24.9980 H   0  0  0  0  0  0  0  0  0  0  0  0
   33.4570   41.8660   29.0270 H   0  0  0  0  0  0  0  0  0  0  0  0
  1  2  2  0  0  0  0
  1  8  1  0  0  0  0
  1 30  1  0  0  0  0
  2  9  1  0  0  0  0
  2 10  1  0  0  0  0
  3  4  1  0  0  0  0
  3 26  1  0  0  0  0
  3 31  1  0  0  0  0
  3 32  1  0  0  0  0
  4 29  1  0  0  0  0
  4 33  1  0  0  0  0
  4 34  1  0  0  0  0
  5 26  1  0  0  0  0
  5 27  1  0  0  0  0
  5 35  1  0  0  0  0
  5 36  1  0  0  0  0
  6 21  1  0  0  0  0
  6 37  1  0  0  0  0
  6 38  1  0  0  0  0
  6 39  1  0  0  0  0
  7  8  1  0  0  0  0
  8 12  2  0  0  0  0
 10 11  2  0  0  0  0
 10 40  1  0  0  0  0
 11 12  1  0  0  0  0
 11 41  1  0  0  0  0
 12 13  1  0  0  0  0
 13 14  1  0  0  0  0
 14 15  2  0  0  0  0
 14 19  1  0  0  0  0
 15 16  1  0  0  0  0
 15 42  1  0  0  0  0
 16 17  2  0  0  0  0
 16 22  1  0  0  0  0
 17 18  1  0  0  0  0
 17 43  1  0  0  0  0
 18 24  2  0  0  0  0
 19 20  2  0  0  0  0
 19 21  1  0  0  0  0
 21 22  1  0  0  0  0
 22 23  2  0  0  0  0
 23 24  1  0  0  0  0
 24 25  1  0  0  0  0
 25 26  1  0  0  0  0
 25 44  1  0  0  0  0
 26 45  1  0  0  0  0
 27 28  1  0  0  0  0
 27 46  1  0  0  0  0
 27 47  1  0  0  0  0
 28 48  1  0  0  0  0
 29 49  1  0  0  0  0
M  END
$$$$
