p38a_2bb
 OpenBabel02232411163D
Structure written by MMmdl.
 44 46  0  0  0  0  0  0  0  0999 V2000
   36.3680   36.0350   15.8120 C   0  0  0  0  0  0  0  0  0  0  0  0
   34.4160   34.9730   21.2440 C   0  0  0  0  0  0  0  0  0  0  0  0
   35.7240   35.5490   16.9460 C   0  0  0  0  0  0  0  0  0  0  0  0
   33.8280   39.0250   23.8170 C   0  0  0  0  0  0  0  0  0  0  0  0
   32.5130   39.0480   25.9690 C   0  0  0  0  0  0  0  0  0  0  0  0
   34.7340   37.8260   21.5080 C   0  0  0  0  0  0  0  0  0  0  0  0
   35.2700   37.1600   20.3490 C   0  0  0  0  0  0  0  0  0  0  0  0
   37.6570   36.5500   15.9990 C   0  0  0  0  0  0  0  0  0  0  0  0
   38.3100   36.5630   17.2350 C   0  0  0  0  0  0  0  0  0  0  0  0
   37.6280   36.1040   18.3670 C   0  0  0  0  0  0  0  0  0  0  0  0
   34.0980   37.0710   22.5370 C   0  0  0  0  0  0  0  0  0  0  0  0
   34.8240   39.2280   21.7050 C   0  0  0  0  0  0  0  0  0  0  0  0
   35.1430   35.8170   20.2530 C   0  0  0  0  0  0  0  0  0  0  0  0
   36.3340   35.5970   18.2160 C   0  0  0  0  0  0  0  0  0  0  0  0
   33.2550   34.9330   23.4920 C   0  0  0  0  0  0  0  0  0  0  0  0
   34.5150   35.0120   16.8570 F   0  0  0  0  0  0  0  0  0  0  0  0
   35.6230   34.9780   19.2540 O   0  0  0  0  0  0  0  0  0  0  0  0
   34.3940   39.8390   22.8220 N   0  0  0  0  0  0  0  0  0  0  0  0
   34.2130   33.7850   21.1340 O   0  0  0  0  0  0  0  0  0  0  0  0
   33.9370   35.6840   22.4010 N   0  0  0  0  0  0  0  0  0  0  0  0
   33.6310   37.6690   23.6840 N   0  0  0  0  0  0  0  0  0  0  0  0
   33.5110   39.6350   25.0240 N   0  0  0  0  0  0  0  0  0  0  0  0
   35.8860   36.0370   14.8310 H   0  0  0  0  0  0  0  0  0  0  0  0
   31.7170   38.5010   25.3860 H   0  0  0  0  0  0  0  0  0  0  0  0
   35.7710   37.7720   19.5950 H   0  0  0  0  0  0  0  0  0  0  0  0
   39.3270   36.9550   17.3280 H   0  0  0  0  0  0  0  0  0  0  0  0
   38.1020   36.1670   19.3490 H   0  0  0  0  0  0  0  0  0  0  0  0
   35.2550   39.8680   20.9180 H   0  0  0  0  0  0  0  0  0  0  0  0
   33.7630   35.1410   24.4740 H   0  0  0  0  0  0  0  0  0  0  0  0
   32.1860   35.2690   23.5770 H   0  0  0  0  0  0  0  0  0  0  0  0
   33.2870   33.8320   23.2870 H   0  0  0  0  0  0  0  0  0  0  0  0
   33.6010   40.6700   25.0760 H   0  0  0  0  0  0  0  0  0  0  0  0
   38.2730   37.0850   14.9470 F   0  0  0  0  0  0  0  0  0  0  0  0
   33.1500   38.0580   26.9510 C   0  0  0  0  0  0  0  0  0  0  0  0
   32.0280   39.9070   26.5100 H   0  0  0  0  0  0  0  0  0  0  0  0
   32.3460   37.3260   27.2520 H   0  0  0  0  0  0  0  0  0  0  0  0
   33.9030   37.4390   26.3860 H   0  0  0  0  0  0  0  0  0  0  0  0
   35.1810   39.7540   27.8270 C   0  0  0  0  0  0  0  0  0  0  0  0
   33.8870   38.7410   28.3940 S   0  0  0  0  0  0  0  0  0  0  0  0
   32.9030   39.5270   29.1750 O   0  0  0  0  0  0  0  0  0  0  0  0
   34.4320   37.6390   29.2300 O   0  0  0  0  0  0  0  0  0  0  0  0
   35.7980   39.2510   27.0400 H   0  0  0  0  0  0  0  0  0  0  0  0
   34.7990   40.7060   27.3670 H   0  0  0  0  0  0  0  0  0  0  0  0
   35.8760   40.0600   28.6500 H   0  0  0  0  0  0  0  0  0  0  0  0
  1  3  2  0  0  0  0
  1  8  1  0  0  0  0
  1 23  1  0  0  0  0
  2 13  1  0  0  0  0
  2 19  2  0  0  0  0
  2 20  1  0  0  0  0
  3 14  1  0  0  0  0
  3 16  1  0  0  0  0
  4 18  2  0  0  0  0
  4 21  1  0  0  0  0
  4 22  1  0  0  0  0
  5 22  1  0  0  0  0
  5 24  1  0  0  0  0
  5 34  1  0  0  0  0
  5 35  1  0  0  0  0
  6  7  1  0  0  0  0
  6 11  1  0  0  0  0
  6 12  2  0  0  0  0
  7 13  2  0  0  0  0
  7 25  1  0  0  0  0
  8  9  2  0  0  0  0
  8 33  1  0  0  0  0
  9 10  1  0  0  0  0
  9 26  1  0  0  0  0
 10 14  2  0  0  0  0
 10 27  1  0  0  0  0
 11 20  1  0  0  0  0
 11 21  2  0  0  0  0
 12 18  1  0  0  0  0
 12 28  1  0  0  0  0
 13 17  1  0  0  0  0
 14 17  1  0  0  0  0
 15 20  1  0  0  0  0
 15 29  1  0  0  0  0
 15 30  1  0  0  0  0
 15 31  1  0  0  0  0
 22 32  1  0  0  0  0
 34 36  1  0  0  0  0
 34 37  1  0  0  0  0
 34 39  1  0  0  0  0
 38 39  1  0  0  0  0
 38 42  1  0  0  0  0
 38 43  1  0  0  0  0
 38 44  1  0  0  0  0
 39 40  2  0  0  0  0
 39 41  2  0  0  0  0
M  END
$$$$
