p38a_2o
 OpenBabel02232411163D
Structure written by MMmdl.
 55 58  0  0  0  0  0  0  0  0999 V2000
   38.2950   36.5460   17.1280 C   0  0  0  0  0  0  0  0  0  0  0  0
   34.5620   35.1030   21.1980 C   0  0  0  0  0  0  0  0  0  0  0  0
   37.5140   36.0830   18.1830 C   0  0  0  0  0  0  0  0  0  0  0  0
   33.9550   39.2280   23.6590 C   0  0  0  0  0  0  0  0  0  0  0  0
   34.6160   37.9880   21.2870 C   0  0  0  0  0  0  0  0  0  0  0  0
   35.0210   37.3090   20.0860 C   0  0  0  0  0  0  0  0  0  0  0  0
   37.6460   36.7070   15.8970 C   0  0  0  0  0  0  0  0  0  0  0  0
   36.2980   36.4030   15.6900 C   0  0  0  0  0  0  0  0  0  0  0  0
   35.5380   35.9230   16.7620 C   0  0  0  0  0  0  0  0  0  0  0  0
   34.2570   37.2330   22.4410 C   0  0  0  0  0  0  0  0  0  0  0  0
   34.5720   39.4030   21.4050 C   0  0  0  0  0  0  0  0  0  0  0  0
   35.0310   35.9570   20.0740 C   0  0  0  0  0  0  0  0  0  0  0  0
   36.1530   35.7540   18.0050 C   0  0  0  0  0  0  0  0  0  0  0  0
   38.0440   35.9500   19.3920 F   0  0  0  0  0  0  0  0  0  0  0  0
   35.4390   35.1240   19.0350 O   0  0  0  0  0  0  0  0  0  0  0  0
   34.2630   40.0350   22.5480 N   0  0  0  0  0  0  0  0  0  0  0  0
   34.4650   33.8960   21.1720 O   0  0  0  0  0  0  0  0  0  0  0  0
   34.2310   35.8250   22.4010 N   0  0  0  0  0  0  0  0  0  0  0  0
   33.9450   37.8470   23.6270 N   0  0  0  0  0  0  0  0  0  0  0  0
   33.5870   39.8560   24.8270 N   0  0  0  0  0  0  0  0  0  0  0  0
   39.3470   36.8120   17.2650 H   0  0  0  0  0  0  0  0  0  0  0  0
   35.3210   37.9160   19.2290 H   0  0  0  0  0  0  0  0  0  0  0  0
   35.8260   36.5510   14.7160 H   0  0  0  0  0  0  0  0  0  0  0  0
   34.4750   35.7030   16.6230 H   0  0  0  0  0  0  0  0  0  0  0  0
   34.7980   40.0340   20.5290 H   0  0  0  0  0  0  0  0  0  0  0  0
   33.6880   40.8850   24.9160 H   0  0  0  0  0  0  0  0  0  0  0  0
   38.3400   37.2150   14.8820 F   0  0  0  0  0  0  0  0  0  0  0  0
   32.1300   39.0050   28.2540 C   0  0  0  0  0  0  0  0  0  0  0  0
   32.2210   39.6700   26.8740 C   0  0  0  0  0  0  0  0  0  0  0  0
   33.4450   39.1140   26.1160 C   0  0  0  0  0  0  0  0  0  0  0  0
   34.7230   39.2880   26.9650 C   0  0  0  0  0  0  0  0  0  0  0  0
   34.5200   38.6540   28.3460 C   0  0  0  0  0  0  0  0  0  0  0  0
   33.3470   39.1780   29.0120 O   0  0  0  0  0  0  0  0  0  0  0  0
   31.9120   37.9170   28.1540 H   0  0  0  0  0  0  0  0  0  0  0  0
   31.3750   39.5120   28.8970 H   0  0  0  0  0  0  0  0  0  0  0  0
   32.3220   40.7750   26.9920 H   0  0  0  0  0  0  0  0  0  0  0  0
   31.2910   39.4610   26.2920 H   0  0  0  0  0  0  0  0  0  0  0  0
   33.2760   38.0230   25.8990 H   0  0  0  0  0  0  0  0  0  0  0  0
   35.5850   38.7950   26.4540 H   0  0  0  0  0  0  0  0  0  0  0  0
   34.9530   40.3760   27.0730 H   0  0  0  0  0  0  0  0  0  0  0  0
   34.4220   37.5480   28.2650 H   0  0  0  0  0  0  0  0  0  0  0  0
   35.3370   38.9470   29.0470 H   0  0  0  0  0  0  0  0  0  0  0  0
   33.7420   35.0620   23.6060 C   0  0  0  0  0  0  0  0  0  0  0  0
   34.2020   34.0370   23.5650 H   0  0  0  0  0  0  0  0  0  0  0  0
   34.1050   35.6050   24.5270 H   0  0  0  0  0  0  0  0  0  0  0  0
   32.2150   34.9770   23.6010 C   0  0  0  0  0  0  0  0  0  0  0  0
   31.8010   36.0180   23.4610 H   0  0  0  0  0  0  0  0  0  0  0  0
   31.8660   34.3980   22.7030 H   0  0  0  0  0  0  0  0  0  0  0  0
   31.5110   34.2720   25.0670 S   0  0  0  0  0  0  0  0  0  0  0  0
   32.5590   33.9160   26.0470 O   0  0  0  0  0  0  0  0  0  0  0  0
   30.7280   33.0680   24.7060 O   0  0  0  0  0  0  0  0  0  0  0  0
   30.4800   35.5290   25.6670 C   0  0  0  0  0  0  0  0  0  0  0  0
   29.6730   35.8080   24.9370 H   0  0  0  0  0  0  0  0  0  0  0  0
   29.9480   35.2470   26.6160 H   0  0  0  0  0  0  0  0  0  0  0  0
   31.0370   36.4730   25.9050 H   0  0  0  0  0  0  0  0  0  0  0  0
  1  3  2  0  0  0  0
  1  7  1  0  0  0  0
  1 21  1  0  0  0  0
  2 12  1  0  0  0  0
  2 17  2  0  0  0  0
  2 18  1  0  0  0  0
  3 13  1  0  0  0  0
  3 14  1  0  0  0  0
  4 16  2  0  0  0  0
  4 19  1  0  0  0  0
  4 20  1  0  0  0  0
  5  6  1  0  0  0  0
  5 10  1  0  0  0  0
  5 11  2  0  0  0  0
  6 12  2  0  0  0  0
  6 22  1  0  0  0  0
  7  8  2  0  0  0  0
  7 27  1  0  0  0  0
  8  9  1  0  0  0  0
  8 23  1  0  0  0  0
  9 13  2  0  0  0  0
  9 24  1  0  0  0  0
 10 18  1  0  0  0  0
 10 19  2  0  0  0  0
 11 16  1  0  0  0  0
 11 25  1  0  0  0  0
 12 15  1  0  0  0  0
 13 15  1  0  0  0  0
 18 43  1  0  0  0  0
 20 26  1  0  0  0  0
 20 30  1  0  0  0  0
 28 29  1  0  0  0  0
 28 33  1  0  0  0  0
 28 34  1  0  0  0  0
 28 35  1  0  0  0  0
 29 30  1  0  0  0  0
 29 36  1  0  0  0  0
 29 37  1  0  0  0  0
 30 31  1  0  0  0  0
 30 38  1  0  0  0  0
 31 32  1  0  0  0  0
 31 39  1  0  0  0  0
 31 40  1  0  0  0  0
 32 33  1  0  0  0  0
 32 41  1  0  0  0  0
 32 42  1  0  0  0  0
 43 44  1  0  0  0  0
 43 45  1  0  0  0  0
 43 46  1  0  0  0  0
 46 47  1  0  0  0  0
 46 48  1  0  0  0  0
 46 49  1  0  0  0  0
 49 50  2  0  0  0  0
 49 51  2  0  0  0  0
 49 52  1  0  0  0  0
 52 53  1  0  0  0  0
 52 54  1  0  0  0  0
 52 55  1  0  0  0  0
M  END
$$$$
