p38a_2u
 OpenBabel02232411163D
Structure written by MMmdl.
 64 68  0  0  0  0  0  0  0  0999 V2000
   38.3200   36.5750   17.1140 C   0  0  0  0  0  0  0  0  0  0  0  0
   34.5870   35.0440   21.1650 C   0  0  0  0  0  0  0  0  0  0  0  0
   37.5410   36.1070   18.1690 C   0  0  0  0  0  0  0  0  0  0  0  0
   34.0020   39.0690   23.7880 C   0  0  0  0  0  0  0  0  0  0  0  0
   34.6810   37.9010   21.3900 C   0  0  0  0  0  0  0  0  0  0  0  0
   35.0900   37.2820   20.1580 C   0  0  0  0  0  0  0  0  0  0  0  0
   37.6700   36.7330   15.8820 C   0  0  0  0  0  0  0  0  0  0  0  0
   36.3220   36.4260   15.6760 C   0  0  0  0  0  0  0  0  0  0  0  0
   35.5650   35.9450   16.7480 C   0  0  0  0  0  0  0  0  0  0  0  0
   34.3170   37.1050   22.5200 C   0  0  0  0  0  0  0  0  0  0  0  0
   34.6370   39.3120   21.5470 C   0  0  0  0  0  0  0  0  0  0  0  0
   35.0800   35.9330   20.0810 C   0  0  0  0  0  0  0  0  0  0  0  0
   36.1810   35.7770   17.9910 C   0  0  0  0  0  0  0  0  0  0  0  0
   38.0730   35.9730   19.3760 F   0  0  0  0  0  0  0  0  0  0  0  0
   35.4680   35.1320   19.0100 O   0  0  0  0  0  0  0  0  0  0  0  0
   34.3110   39.9120   22.7020 N   0  0  0  0  0  0  0  0  0  0  0  0
   34.4480   33.8440   21.0600 O   0  0  0  0  0  0  0  0  0  0  0  0
   34.2630   35.7010   22.4090 N   0  0  0  0  0  0  0  0  0  0  0  0
   34.0130   37.6910   23.7220 N   0  0  0  0  0  0  0  0  0  0  0  0
   33.5930   39.6810   24.9550 N   0  0  0  0  0  0  0  0  0  0  0  0
   39.3710   36.8420   17.2510 H   0  0  0  0  0  0  0  0  0  0  0  0
   35.4030   37.9270   19.3350 H   0  0  0  0  0  0  0  0  0  0  0  0
   35.8500   36.5730   14.7020 H   0  0  0  0  0  0  0  0  0  0  0  0
   34.5020   35.7210   16.6100 H   0  0  0  0  0  0  0  0  0  0  0  0
   34.8750   39.9680   20.6930 H   0  0  0  0  0  0  0  0  0  0  0  0
   33.6980   40.7130   25.0420 H   0  0  0  0  0  0  0  0  0  0  0  0
   38.3620   37.2420   14.8660 F   0  0  0  0  0  0  0  0  0  0  0  0
   32.4510   39.0540   28.5410 C   0  0  0  0  0  0  0  0  0  0  0  0
   32.4410   39.6370   27.1230 C   0  0  0  0  0  0  0  0  0  0  0  0
   33.5240   38.9540   26.2590 C   0  0  0  0  0  0  0  0  0  0  0  0
   34.8980   39.0040   26.9670 C   0  0  0  0  0  0  0  0  0  0  0  0
   34.7790   38.4600   28.3940 C   0  0  0  0  0  0  0  0  0  0  0  0
   33.7600   39.1590   29.1470 O   0  0  0  0  0  0  0  0  0  0  0  0
   32.1370   37.9850   28.5340 H   0  0  0  0  0  0  0  0  0  0  0  0
   31.8180   39.6580   29.2300 H   0  0  0  0  0  0  0  0  0  0  0  0
   32.6320   40.7350   27.1720 H   0  0  0  0  0  0  0  0  0  0  0  0
   31.4390   39.4720   26.6580 H   0  0  0  0  0  0  0  0  0  0  0  0
   33.2290   37.8840   26.0740 H   0  0  0  0  0  0  0  0  0  0  0  0
   35.6320   38.3850   26.3980 H   0  0  0  0  0  0  0  0  0  0  0  0
   35.2660   40.0580   26.9950 H   0  0  0  0  0  0  0  0  0  0  0  0
   34.5360   37.3730   28.3860 H   0  0  0  0  0  0  0  0  0  0  0  0
   35.6980   38.6720   28.9870 H   0  0  0  0  0  0  0  0  0  0  0  0
   31.8320   34.0530   24.9210 C   0  0  0  0  0  0  0  0  0  0  0  0
   32.3250   35.1290   23.9300 C   0  0  0  0  0  0  0  0  0  0  0  0
   33.7760   34.8140   23.5320 C   0  0  0  0  0  0  0  0  0  0  0  0
   34.6750   34.8620   24.7800 C   0  0  0  0  0  0  0  0  0  0  0  0
   34.1950   33.7860   25.7820 C   0  0  0  0  0  0  0  0  0  0  0  0
   31.7510   33.0670   24.3940 H   0  0  0  0  0  0  0  0  0  0  0  0
   30.8190   34.3730   25.2850 H   0  0  0  0  0  0  0  0  0  0  0  0
   32.2650   36.1270   24.4340 H   0  0  0  0  0  0  0  0  0  0  0  0
   31.6530   35.1420   23.0440 H   0  0  0  0  0  0  0  0  0  0  0  0
   33.8090   33.7590   23.1220 H   0  0  0  0  0  0  0  0  0  0  0  0
   35.7380   34.6700   24.5170 H   0  0  0  0  0  0  0  0  0  0  0  0
   34.6030   35.8650   25.2730 H   0  0  0  0  0  0  0  0  0  0  0  0
   34.3910   32.7680   25.3570 H   0  0  0  0  0  0  0  0  0  0  0  0
   34.7780   33.9240   26.7320 H   0  0  0  0  0  0  0  0  0  0  0  0
   32.7460   33.9610   26.0970 N   0  0  0  0  0  0  0  0  0  0  0  0
   32.1090   33.3530   27.5670 S   0  0  0  0  0  0  0  0  0  0  0  0
   33.1060   32.4740   28.2100 O   0  0  0  0  0  0  0  0  0  0  0  0
   30.8530   32.6250   27.2910 O   0  0  0  0  0  0  0  0  0  0  0  0
   31.8310   34.7810   28.4990 C   0  0  0  0  0  0  0  0  0  0  0  0
   32.7480   35.4230   28.5650 H   0  0  0  0  0  0  0  0  0  0  0  0
   31.0290   35.4310   28.0520 H   0  0  0  0  0  0  0  0  0  0  0  0
   31.5120   34.5610   29.5500 H   0  0  0  0  0  0  0  0  0  0  0  0
  1  3  2  0  0  0  0
  1  7  1  0  0  0  0
  1 21  1  0  0  0  0
  2 12  1  0  0  0  0
  2 17  2  0  0  0  0
  2 18  1  0  0  0  0
  3 13  1  0  0  0  0
  3 14  1  0  0  0  0
  4 16  2  0  0  0  0
  4 19  1  0  0  0  0
  4 20  1  0  0  0  0
  5  6  1  0  0  0  0
  5 10  1  0  0  0  0
  5 11  2  0  0  0  0
  6 12  2  0  0  0  0
  6 22  1  0  0  0  0
  7  8  2  0  0  0  0
  7 27  1  0  0  0  0
  8  9  1  0  0  0  0
  8 23  1  0  0  0  0
  9 13  2  0  0  0  0
  9 24  1  0  0  0  0
 10 18  1  0  0  0  0
 10 19  2  0  0  0  0
 11 16  1  0  0  0  0
 11 25  1  0  0  0  0
 12 15  1  0  0  0  0
 13 15  1  0  0  0  0
 18 45  1  0  0  0  0
 20 26  1  0  0  0  0
 20 30  1  0  0  0  0
 28 29  1  0  0  0  0
 28 33  1  0  0  0  0
 28 34  1  0  0  0  0
 28 35  1  0  0  0  0
 29 30  1  0  0  0  0
 29 36  1  0  0  0  0
 29 37  1  0  0  0  0
 30 31  1  0  0  0  0
 30 38  1  0  0  0  0
 31 32  1  0  0  0  0
 31 39  1  0  0  0  0
 31 40  1  0  0  0  0
 32 33  1  0  0  0  0
 32 41  1  0  0  0  0
 32 42  1  0  0  0  0
 43 44  1  0  0  0  0
 43 48  1  0  0  0  0
 43 49  1  0  0  0  0
 43 57  1  0  0  0  0
 44 45  1  0  0  0  0
 44 50  1  0  0  0  0
 44 51  1  0  0  0  0
 45 46  1  0  0  0  0
 45 52  1  0  0  0  0
 46 47  1  0  0  0  0
 46 53  1  0  0  0  0
 46 54  1  0  0  0  0
 47 55  1  0  0  0  0
 47 56  1  0  0  0  0
 47 57  1  0  0  0  0
 57 58  1  0  0  0  0
 58 59  2  0  0  0  0
 58 60  2  0  0  0  0
 58 61  1  0  0  0  0
 61 62  1  0  0  0  0
 61 63  1  0  0  0  0
 61 64  1  0  0  0  0
M  END
$$$$
