18637-1
 OpenBabel02232411163D
Structure written by MMmdl.
 53 54  0  0  0  0  0  0  0  0999 V2000
   23.8530   12.6290   30.3480 C   0  0  0  0  0  0  0  0  0  0  0  0
   23.4090   11.1830   30.4640 C   0  0  0  0  0  0  0  0  0  0  0  0
   22.1570   11.2790   31.2560 O   0  0  0  0  0  0  0  0  0  0  0  0
   21.5180   10.1380   31.5910 C   0  0  0  0  0  0  0  0  0  0  0  0
   21.9910    8.9520   31.1430 N   0  0  0  0  0  0  0  0  0  0  0  0
   21.2540    7.8150   31.4490 C   0  0  0  0  0  0  0  0  0  0  0  0
   20.1020    7.8530   32.2300 C   0  0  0  0  0  0  0  0  0  0  0  0
   19.6250    9.1010   32.7100 C   0  0  0  0  0  0  0  0  0  0  0  0
   18.4860    9.1430   33.4730 N   0  0  0  0  0  0  0  0  0  0  0  0
   20.3340   10.2980   32.3730 C   0  0  0  0  0  0  0  0  0  0  0  0
   19.9150   11.5970   32.7270 C   0  0  0  0  0  0  0  0  0  0  0  0
   19.6160   12.6900   32.9750 N   0  0  0  0  0  0  0  0  0  0  0  0
   21.8050    6.6560   30.8620 N   0  0  0  0  0  0  0  0  0  0  0  0
   21.1920    5.3820   30.7710 C   0  0  0  0  0  0  0  0  0  0  0  0
   20.1170    5.1360   31.2750 O   0  0  0  0  0  0  0  0  0  0  0  0
   21.9820    4.3950   29.9210 C   0  0  0  0  0  0  0  0  0  0  0  0
   23.2960    4.0270   30.5390 C   0  0  0  0  0  0  0  0  0  0  0  0
   24.4500    4.8180   30.3330 C   0  0  0  0  0  0  0  0  0  0  0  0
   24.2220    5.9030   29.5060 O   0  0  0  0  0  0  0  0  0  0  0  0
   25.2500    6.9250   29.3970 C   0  0  0  0  0  0  0  0  0  0  0  0
   25.6890    4.5050   30.9050 C   0  0  0  0  0  0  0  0  0  0  0  0
   25.8060    3.3620   31.7030 C   0  0  0  0  0  0  0  0  0  0  0  0
   24.6410    2.5660   31.9260 C   0  0  0  0  0  0  0  0  0  0  0  0
   23.4180    2.8850   31.3420 C   0  0  0  0  0  0  0  0  0  0  0  0
   24.8330    1.5270   32.8280 O   0  0  0  0  0  0  0  0  0  0  0  0
   24.0770    0.3110   32.5890 C   0  0  0  0  0  0  0  0  0  0  0  0
   27.0190    2.9690   32.3330 N   0  0  0  0  0  0  0  0  0  0  0  0
   28.3280    3.3340   31.9280 C   0  0  0  0  0  0  0  0  0  0  0  0
   28.5120    4.0670   30.9710 O   0  0  0  0  0  0  0  0  0  0  0  0
   29.4100    2.7420   32.7760 C   0  0  0  0  0  0  0  0  0  0  0  0
   24.7760   12.6710   29.7160 H   0  0  0  0  0  0  0  0  0  0  0  0
   23.0680   13.2500   29.8550 H   0  0  0  0  0  0  0  0  0  0  0  0
   24.0830   13.0670   31.3450 H   0  0  0  0  0  0  0  0  0  0  0  0
   23.1520   10.7380   29.4770 H   0  0  0  0  0  0  0  0  0  0  0  0
   24.1330   10.5580   31.0330 H   0  0  0  0  0  0  0  0  0  0  0  0
   19.5460    6.9420   32.4620 H   0  0  0  0  0  0  0  0  0  0  0  0
   18.0880   10.0280   33.7870 H   0  0  0  0  0  0  0  0  0  0  0  0
   17.9820    8.2720   33.7320 H   0  0  0  0  0  0  0  0  0  0  0  0
   22.7270    6.7920   30.3800 H   0  0  0  0  0  0  0  0  0  0  0  0
   21.3620    3.4730   29.7760 H   0  0  0  0  0  0  0  0  0  0  0  0
   22.1610    4.8640   28.9160 H   0  0  0  0  0  0  0  0  0  0  0  0
   26.1250    6.5150   28.8520 H   0  0  0  0  0  0  0  0  0  0  0  0
   25.5170    7.3120   30.4030 H   0  0  0  0  0  0  0  0  0  0  0  0
   24.7210    7.7000   28.7940 H   0  0  0  0  0  0  0  0  0  0  0  0
   26.5620    5.1410   30.7270 H   0  0  0  0  0  0  0  0  0  0  0  0
   22.5540    2.2390   31.5130 H   0  0  0  0  0  0  0  0  0  0  0  0
   24.6010   -0.4130   33.2570 H   0  0  0  0  0  0  0  0  0  0  0  0
   23.0240    0.4620   32.9100 H   0  0  0  0  0  0  0  0  0  0  0  0
   24.1550    0.0050   31.5240 H   0  0  0  0  0  0  0  0  0  0  0  0
   26.9290    2.2270   33.0520 H   0  0  0  0  0  0  0  0  0  0  0  0
   30.4130    3.1460   32.4840 H   0  0  0  0  0  0  0  0  0  0  0  0
   29.4510    1.6280   32.6660 H   0  0  0  0  0  0  0  0  0  0  0  0
   29.2610    2.9690   33.8640 H   0  0  0  0  0  0  0  0  0  0  0  0
  1  2  1  0  0  0  0
  1 31  1  0  0  0  0
  1 32  1  0  0  0  0
  1 33  1  0  0  0  0
  2  3  1  0  0  0  0
  2 34  1  0  0  0  0
  2 35  1  0  0  0  0
  3  4  1  0  0  0  0
  4 10  2  0  0  0  0
  4  5  1  0  0  0  0
  5  6  2  0  0  0  0
  6  7  1  0  0  0  0
  6 13  1  0  0  0  0
  7  8  2  0  0  0  0
  7 36  1  0  0  0  0
  8  9  1  0  0  0  0
  8 10  1  0  0  0  0
  9 37  1  0  0  0  0
  9 38  1  0  0  0  0
 10 11  1  0  0  0  0
 11 12  3  0  0  0  0
 13 14  1  0  0  0  0
 13 39  1  0  0  0  0
 14 15  2  0  0  0  0
 14 16  1  0  0  0  0
 16 17  1  0  0  0  0
 16 40  1  0  0  0  0
 16 41  1  0  0  0  0
 17 24  2  0  0  0  0
 17 18  1  0  0  0  0
 18 19  1  0  0  0  0
 18 21  2  0  0  0  0
 19 20  1  0  0  0  0
 20 42  1  0  0  0  0
 20 43  1  0  0  0  0
 20 44  1  0  0  0  0
 21 22  1  0  0  0  0
 21 45  1  0  0  0  0
 22 23  2  0  0  0  0
 22 27  1  0  0  0  0
 23 24  1  0  0  0  0
 23 25  1  0  0  0  0
 24 46  1  0  0  0  0
 25 26  1  0  0  0  0
 26 47  1  0  0  0  0
 26 48  1  0  0  0  0
 26 49  1  0  0  0  0
 27 28  1  0  0  0  0
 27 50  1  0  0  0  0
 28 29  2  0  0  0  0
 28 30  1  0  0  0  0
 30 51  1  0  0  0  0
 30 52  1  0  0  0  0
 30 53  1  0  0  0  0
M  END
$$$$
