18629-1
 OpenBabel02232411163D
Structure written by MMmdl.
 41 42  0  0  0  0  0  0  0  0999 V2000
   23.2140   10.8600   29.0560 C   0  0  0  0  0  0  0  0  0  0  0  0
   23.4850   11.0690   30.5310 C   0  0  0  0  0  0  0  0  0  0  0  0
   22.2180   11.1420   31.2880 O   0  0  0  0  0  0  0  0  0  0  0  0
   21.5690   10.0040   31.6160 C   0  0  0  0  0  0  0  0  0  0  0  0
   22.0390    8.8130   31.1800 N   0  0  0  0  0  0  0  0  0  0  0  0
   21.3040    7.6790   31.4910 C   0  0  0  0  0  0  0  0  0  0  0  0
   20.1440    7.7220   32.2580 C   0  0  0  0  0  0  0  0  0  0  0  0
   19.6660    8.9750   32.7270 C   0  0  0  0  0  0  0  0  0  0  0  0
   18.5110    9.0280   33.4660 N   0  0  0  0  0  0  0  0  0  0  0  0
   20.3880   10.1680   32.4010 C   0  0  0  0  0  0  0  0  0  0  0  0
   19.9900   11.4690   32.7750 C   0  0  0  0  0  0  0  0  0  0  0  0
   19.7140   12.5630   33.0430 N   0  0  0  0  0  0  0  0  0  0  0  0
   21.8750    6.5190   30.9150 N   0  0  0  0  0  0  0  0  0  0  0  0
   21.3130    5.2190   30.8770 C   0  0  0  0  0  0  0  0  0  0  0  0
   20.2630    4.9500   31.4210 O   0  0  0  0  0  0  0  0  0  0  0  0
   22.1180    4.2390   30.0390 C   0  0  0  0  0  0  0  0  0  0  0  0
   23.4580    3.9200   30.6510 C   0  0  0  0  0  0  0  0  0  0  0  0
   24.5870    4.6780   30.3110 C   0  0  0  0  0  0  0  0  0  0  0  0
   25.8320    4.4090   30.9040 C   0  0  0  0  0  0  0  0  0  0  0  0
   27.0280    5.2180   30.5230 C   0  0  0  0  0  0  0  0  0  0  0  0
   25.9370    3.3640   31.8370 C   0  0  0  0  0  0  0  0  0  0  0  0
   24.8180    2.5920   32.1530 C   0  0  0  0  0  0  0  0  0  0  0  0
   23.5800    2.8600   31.5600 C   0  0  0  0  0  0  0  0  0  0  0  0
   22.8560    9.8230   28.8520 H   0  0  0  0  0  0  0  0  0  0  0  0
   22.4560   11.5810   28.6760 H   0  0  0  0  0  0  0  0  0  0  0  0
   24.1600   11.0180   28.4820 H   0  0  0  0  0  0  0  0  0  0  0  0
   23.8780   12.0930   30.7460 H   0  0  0  0  0  0  0  0  0  0  0  0
   24.1320   10.2710   30.9610 H   0  0  0  0  0  0  0  0  0  0  0  0
   19.5860    6.8130   32.4910 H   0  0  0  0  0  0  0  0  0  0  0  0
   18.0110    8.1620   33.7430 H   0  0  0  0  0  0  0  0  0  0  0  0
   18.1210    9.9170   33.7790 H   0  0  0  0  0  0  0  0  0  0  0  0
   22.7800    6.6770   30.4280 H   0  0  0  0  0  0  0  0  0  0  0  0
   21.5260    3.2930   29.9290 H   0  0  0  0  0  0  0  0  0  0  0  0
   22.2600    4.6790   29.0170 H   0  0  0  0  0  0  0  0  0  0  0  0
   24.5220    5.4790   29.5730 H   0  0  0  0  0  0  0  0  0  0  0  0
   26.7790    6.3080   30.4770 H   0  0  0  0  0  0  0  0  0  0  0  0
   27.8690    5.0860   31.2450 H   0  0  0  0  0  0  0  0  0  0  0  0
   27.3920    4.9070   29.5110 H   0  0  0  0  0  0  0  0  0  0  0  0
   26.8980    3.1460   32.3110 H   0  0  0  0  0  0  0  0  0  0  0  0
   24.9110    1.7690   32.8680 H   0  0  0  0  0  0  0  0  0  0  0  0
   22.7240    2.2290   31.8020 H   0  0  0  0  0  0  0  0  0  0  0  0
  1  2  1  0  0  0  0
  1 24  1  0  0  0  0
  1 25  1  0  0  0  0
  1 26  1  0  0  0  0
  2  3  1  0  0  0  0
  2 27  1  0  0  0  0
  2 28  1  0  0  0  0
  3  4  1  0  0  0  0
  4 10  2  0  0  0  0
  4  5  1  0  0  0  0
  5  6  2  0  0  0  0
  6  7  1  0  0  0  0
  6 13  1  0  0  0  0
  7  8  2  0  0  0  0
  7 29  1  0  0  0  0
  8  9  1  0  0  0  0
  8 10  1  0  0  0  0
  9 30  1  0  0  0  0
  9 31  1  0  0  0  0
 10 11  1  0  0  0  0
 11 12  3  0  0  0  0
 13 14  1  0  0  0  0
 13 32  1  0  0  0  0
 14 15  2  0  0  0  0
 14 16  1  0  0  0  0
 16 17  1  0  0  0  0
 16 33  1  0  0  0  0
 16 34  1  0  0  0  0
 17 23  2  0  0  0  0
 17 18  1  0  0  0  0
 18 19  2  0  0  0  0
 18 35  1  0  0  0  0
 19 20  1  0  0  0  0
 19 21  1  0  0  0  0
 20 36  1  0  0  0  0
 20 37  1  0  0  0  0
 20 38  1  0  0  0  0
 21 22  2  0  0  0  0
 21 39  1  0  0  0  0
 22 23  1  0  0  0  0
 22 40  1  0  0  0  0
 23 41  1  0  0  0  0
M  END
$$$$
