p38a_3flz
 OpenBabel02232411163D
Structure written by MMmdl.
 46 49  0  0  0  0  0  0  0  0999 V2000
   35.1240   35.1330   19.1610 O   0  0  0  0  0  0  0  0  0  0  0  0
   34.9770   37.2770   20.3280 C   0  0  0  0  0  0  0  0  0  0  0  0
   34.2600   37.1990   22.7040 C   0  0  0  0  0  0  0  0  0  0  0  0
   34.6370   37.9490   21.5500 C   0  0  0  0  0  0  0  0  0  0  0  0
   34.6520   39.3640   21.6800 C   0  0  0  0  0  0  0  0  0  0  0  0
   34.0490   39.1880   23.9460 C   0  0  0  0  0  0  0  0  0  0  0  0
   34.8900   35.9270   20.2790 C   0  0  0  0  0  0  0  0  0  0  0  0
   36.1210   35.5810   18.2750 C   0  0  0  0  0  0  0  0  0  0  0  0
   33.8190   35.0310   23.8580 C   0  0  0  0  0  0  0  0  0  0  0  0
   31.8750   38.7850   26.2610 C   0  0  0  0  0  0  0  0  0  0  0  0
   37.4000   35.9450   18.7120 C   0  0  0  0  0  0  0  0  0  0  0  0
   38.0310   36.2170   16.3840 C   0  0  0  0  0  0  0  0  0  0  0  0
   38.3560   36.2630   17.7440 C   0  0  0  0  0  0  0  0  0  0  0  0
   36.7460   35.8430   15.9770 C   0  0  0  0  0  0  0  0  0  0  0  0
   34.2380   33.8850   21.3650 O   0  0  0  0  0  0  0  0  0  0  0  0
   34.4230   35.0820   21.4060 C   0  0  0  0  0  0  0  0  0  0  0  0
   35.7690   35.5200   16.9210 C   0  0  0  0  0  0  0  0  0  0  0  0
   34.3690   39.9920   22.8270 N   0  0  0  0  0  0  0  0  0  0  0  0
   34.1710   35.8010   22.6320 N   0  0  0  0  0  0  0  0  0  0  0  0
   33.9660   37.8120   23.9000 N   0  0  0  0  0  0  0  0  0  0  0  0
   33.8530   39.8700   25.1250 N   0  0  0  0  0  0  0  0  0  0  0  0
   33.3140   39.3230   26.4060 C   0  0  0  0  0  0  0  0  0  0  0  0
   34.2340   38.2500   27.0170 C   0  0  0  0  0  0  0  0  0  0  0  0
   33.6360   37.7560   28.3400 C   0  0  0  0  0  0  0  0  0  0  0  0
   32.2800   37.2790   28.1730 O   0  0  0  0  0  0  0  0  0  0  0  0
   31.3850   38.2720   27.6220 C   0  0  0  0  0  0  0  0  0  0  0  0
   35.3060   37.8820   19.4770 H   0  0  0  0  0  0  0  0  0  0  0  0
   34.8940   39.9910   20.8050 H   0  0  0  0  0  0  0  0  0  0  0  0
   33.8090   33.9320   23.6370 H   0  0  0  0  0  0  0  0  0  0  0  0
   34.5710   35.2370   24.6660 H   0  0  0  0  0  0  0  0  0  0  0  0
   32.8040   35.3420   24.2280 H   0  0  0  0  0  0  0  0  0  0  0  0
   31.2000   39.5960   25.9010 H   0  0  0  0  0  0  0  0  0  0  0  0
   31.8510   37.9500   25.5200 H   0  0  0  0  0  0  0  0  0  0  0  0
   37.6470   36.0050   19.7700 H   0  0  0  0  0  0  0  0  0  0  0  0
   38.7740   36.5070   15.6450 H   0  0  0  0  0  0  0  0  0  0  0  0
   39.3620   36.5680   18.0420 H   0  0  0  0  0  0  0  0  0  0  0  0
   36.4940   35.8310   14.9150 H   0  0  0  0  0  0  0  0  0  0  0  0
   34.7560   35.2690   16.6050 H   0  0  0  0  0  0  0  0  0  0  0  0
   33.8480   40.9110   25.0930 H   0  0  0  0  0  0  0  0  0  0  0  0
   33.2970   40.2210   27.0970 H   0  0  0  0  0  0  0  0  0  0  0  0
   34.3450   37.3880   26.3140 H   0  0  0  0  0  0  0  0  0  0  0  0
   35.2460   38.6820   27.2040 H   0  0  0  0  0  0  0  0  0  0  0  0
   34.1640   36.8440   28.7030 H   0  0  0  0  0  0  0  0  0  0  0  0
   33.6420   38.5630   29.1100 H   0  0  0  0  0  0  0  0  0  0  0  0
   31.2820   39.1060   28.3530 H   0  0  0  0  0  0  0  0  0  0  0  0
   30.4340   37.7000   27.5200 H   0  0  0  0  0  0  0  0  0  0  0  0
  1  7  1  0  0  0  0
  1  8  1  0  0  0  0
  2  4  1  0  0  0  0
  2  7  2  0  0  0  0
  2 27  1  0  0  0  0
  3  4  2  0  0  0  0
  3 19  1  0  0  0  0
  3 20  1  0  0  0  0
  4  5  1  0  0  0  0
  5 18  2  0  0  0  0
  5 28  1  0  0  0  0
  6 18  1  0  0  0  0
  6 20  2  0  0  0  0
  6 21  1  0  0  0  0
  7 16  1  0  0  0  0
  8 11  2  0  0  0  0
  8 17  1  0  0  0  0
  9 19  1  0  0  0  0
  9 29  1  0  0  0  0
  9 30  1  0  0  0  0
  9 31  1  0  0  0  0
 10 22  1  0  0  0  0
 10 26  1  0  0  0  0
 10 32  1  0  0  0  0
 10 33  1  0  0  0  0
 11 13  1  0  0  0  0
 11 34  1  0  0  0  0
 12 13  2  0  0  0  0
 12 14  1  0  0  0  0
 12 35  1  0  0  0  0
 13 36  1  0  0  0  0
 14 17  2  0  0  0  0
 14 37  1  0  0  0  0
 15 16  2  0  0  0  0
 16 19  1  0  0  0  0
 17 38  1  0  0  0  0
 21 22  1  0  0  0  0
 21 39  1  0  0  0  0
 22 23  1  0  0  0  0
 22 40  1  0  0  0  0
 23 24  1  0  0  0  0
 23 41  1  0  0  0  0
 23 42  1  0  0  0  0
 24 25  1  0  0  0  0
 24 43  1  0  0  0  0
 24 44  1  0  0  0  0
 25 26  1  0  0  0  0
 26 45  1  0  0  0  0
 26 46  1  0  0  0  0
M  END
$$$$
