p38a_3fmh
 OpenBabel02232411163D
Structure written by MMmdl.
 46 49  0  0  1  0  0  0  0  0999 V2000
   38.3600   37.2430   14.8820 F   0  0  0  0  0  0  0  0  0  0  0  0
   37.6620   36.7220   15.8880 C   0  0  0  0  0  0  0  0  0  0  0  0
   36.3180   36.4120   15.6690 C   0  0  0  0  0  0  0  0  0  0  0  0
   35.5530   35.9170   16.7310 C   0  0  0  0  0  0  0  0  0  0  0  0
   38.3030   36.5560   17.1240 C   0  0  0  0  0  0  0  0  0  0  0  0
   37.5170   36.0800   18.1690 C   0  0  0  0  0  0  0  0  0  0  0  0
   38.0380   35.9430   19.3810 F   0  0  0  0  0  0  0  0  0  0  0  0
   36.1600   35.7430   17.9770 C   0  0  0  0  0  0  0  0  0  0  0  0
   35.4390   35.1060   18.9980 O   0  0  0  0  0  0  0  0  0  0  0  0
   35.0290   35.9310   20.0420 C   0  0  0  0  0  0  0  0  0  0  0  0
   34.5020   35.0740   21.1390 C   0  0  0  0  0  0  0  0  0  0  0  0
   34.3780   33.8700   21.0940 O   0  0  0  0  0  0  0  0  0  0  0  0
   34.1280   35.7910   22.3280 N   0  0  0  0  0  0  0  0  0  0  0  0
   33.6260   35.0310   23.5080 C   0  0  0  0  0  0  0  0  0  0  0  0
   34.2160   37.1890   22.4100 C   0  0  0  0  0  0  0  0  0  0  0  0
   33.8700   37.7930   23.5950 N   0  0  0  0  0  0  0  0  0  0  0  0
   35.0690   37.2830   20.0830 C   0  0  0  0  0  0  0  0  0  0  0  0
   34.6540   37.9510   21.2860 C   0  0  0  0  0  0  0  0  0  0  0  0
   34.6720   39.3630   21.4330 C   0  0  0  0  0  0  0  0  0  0  0  0
   34.3570   39.9790   22.5840 N   0  0  0  0  0  0  0  0  0  0  0  0
   33.9860   39.1630   23.6640 C   0  0  0  0  0  0  0  0  0  0  0  0
   33.8020   39.7840   24.8960 N   0  0  0  0  0  0  0  0  0  0  0  0
   32.9540   39.1290   25.9420 C   0  0  2  0  0  0  0  0  0  0  0  0
   31.4710   39.3950   25.6780 C   0  0  0  0  0  0  0  0  0  0  0  0
   33.4320   39.7320   27.3000 C   0  0  0  0  0  0  0  0  0  0  0  0
   32.8470   38.9920   28.4390 N   0  0  0  0  0  0  0  0  0  0  0  0
   31.8180   39.4750   29.1890 N   0  0  0  0  0  0  0  0  0  0  0  0
   31.5550   38.4820   30.0830 C   0  0  0  0  0  0  0  0  0  0  0  0
   32.4500   37.4020   29.8480 N   0  0  0  0  0  0  0  0  0  0  0  0
   33.2110   37.7340   28.8540 N   0  0  0  0  0  0  0  0  0  0  0  0
   35.8520   36.5660   14.6940 H   0  0  0  0  0  0  0  0  0  0  0  0
   34.4930   35.6900   16.5810 H   0  0  0  0  0  0  0  0  0  0  0  0
   39.3530   36.8260   17.2700 H   0  0  0  0  0  0  0  0  0  0  0  0
   34.2390   35.2810   24.4160 H   0  0  0  0  0  0  0  0  0  0  0  0
   32.5570   35.3110   23.7120 H   0  0  0  0  0  0  0  0  0  0  0  0
   33.6890   33.9290   23.3140 H   0  0  0  0  0  0  0  0  0  0  0  0
   35.4160   37.8940   19.2480 H   0  0  0  0  0  0  0  0  0  0  0  0
   34.9420   40.0020   20.5770 H   0  0  0  0  0  0  0  0  0  0  0  0
   33.7320   40.8250   24.9040 H   0  0  0  0  0  0  0  0  0  0  0  0
   33.1600   38.0200   25.9410 H   0  0  0  0  0  0  0  0  0  0  0  0
   30.8440   38.9880   26.5000 H   0  0  0  0  0  0  0  0  0  0  0  0
   31.2800   40.4890   25.5930 H   0  0  0  0  0  0  0  0  0  0  0  0
   31.1550   38.9020   24.7290 H   0  0  0  0  0  0  0  0  0  0  0  0
   34.5580   39.6660   27.3620 H   0  0  0  0  0  0  0  0  0  0  0  0
   33.1350   40.8180   27.3700 H   0  0  0  0  0  0  0  0  0  0  0  0
   30.7870   38.5000   30.8550 H   0  0  0  0  0  0  0  0  0  0  0  0
  1  2  1  0  0  0  0
  2  3  2  0  0  0  0
  2  5  1  0  0  0  0
  3  4  1  0  0  0  0
  3 31  1  0  0  0  0
  4  8  2  0  0  0  0
  4 32  1  0  0  0  0
  5  6  2  0  0  0  0
  5 33  1  0  0  0  0
  6  7  1  0  0  0  0
  6  8  1  0  0  0  0
  8  9  1  0  0  0  0
  9 10  1  0  0  0  0
 10 11  1  0  0  0  0
 10 17  2  0  0  0  0
 11 12  2  0  0  0  0
 11 13  1  0  0  0  0
 13 14  1  0  0  0  0
 13 15  1  0  0  0  0
 14 34  1  0  0  0  0
 14 35  1  0  0  0  0
 14 36  1  0  0  0  0
 15 16  2  0  0  0  0
 15 18  1  0  0  0  0
 16 21  1  0  0  0  0
 17 18  1  0  0  0  0
 17 37  1  0  0  0  0
 18 19  2  0  0  0  0
 19 20  1  0  0  0  0
 19 38  1  0  0  0  0
 20 21  2  0  0  0  0
 21 22  1  0  0  0  0
 22 23  1  0  0  0  0
 22 39  1  0  0  0  0
 23 24  1  0  0  0  0
 23 25  1  0  0  0  0
 23 40  1  6  0  0  0
 24 41  1  0  0  0  0
 24 42  1  0  0  0  0
 24 43  1  0  0  0  0
 25 26  1  0  0  0  0
 25 44  1  0  0  0  0
 25 45  1  0  0  0  0
 26 27  1  0  0  0  0
 26 30  1  0  0  0  0
 27 28  2  0  0  0  0
 28 29  1  0  0  0  0
 28 46  1  0  0  0  0
 29 30  2  0  0  0  0
M  END
$$$$
