ejm_47
                    3D
 Schrodinger Suite 2022-3.
 39 41  0  0  1  0  0  0  0  0999 V2000
   -3.1670   22.6480  -29.6540 C   0  0  0  0  0  0  0  0  0  0  0  0
   -3.6320   21.5550  -28.9040 C   0  0  0  0  0  0  0  0  0  0  0  0
   -2.8250   20.9170  -27.9610 C   0  0  0  0  0  0  0  0  0  0  0  0
   -5.1710   25.3190  -31.5050 C   0  0  0  0  0  0  0  0  0  0  0  0
   -4.0380   23.1890  -30.7500 C   0  0  0  0  0  0  0  0  0  0  0  0
   -5.8610   24.7630  -32.5940 C   0  0  0  0  0  0  0  0  0  0  0  0
   -6.7080   25.5950  -33.3400 C   0  0  0  0  0  0  0  0  0  0  0  0
   -1.8730   23.1110  -29.3860 C   0  0  0  0  0  0  0  0  0  0  0  0
   -1.5260   21.3840  -27.7390 C   0  0  0  0  0  0  0  0  0  0  0  0
   -1.0480   22.4920  -28.4440 C   0  0  0  0  0  0  0  0  0  0  0  0
   -5.2310   20.9900  -29.1550 Cl  0  0  0  0  0  0  0  0  0  0  0  0
   -4.4650   22.4790  -31.6360 O   0  0  0  0  0  0  0  0  0  0  0  0
   -4.3290   24.5640  -30.6390 N   0  0  0  0  0  0  0  0  0  0  0  0
   -6.8860   26.9130  -33.0770 N   0  0  0  0  0  0  0  0  0  0  0  0
   -6.1920   27.4510  -32.0090 C   0  0  0  0  0  0  0  0  0  0  0  0
   -5.3240   26.6910  -31.2110 C   0  0  0  0  0  0  0  0  0  0  0  0
   -6.4470   28.8330  -31.7880 N   0  0  0  0  0  0  0  0  0  0  0  0
   -5.7230   29.6940  -30.9170 C   0  0  0  0  0  0  0  0  0  0  0  0
   -4.8600   29.2520  -30.1820 O   0  0  0  0  0  0  0  0  0  0  0  0
   -1.2530   24.4800  -30.2140 Cl  0  0  0  0  0  0  0  0  0  0  0  0
   -3.1860   20.0570  -27.3920 H   0  0  0  0  0  0  0  0  0  0  0  0
   -5.7700   23.7070  -32.8600 H   0  0  0  0  0  0  0  0  0  0  0  0
   -7.2780   25.1880  -34.1930 H   0  0  0  0  0  0  0  0  0  0  0  0
   -0.8810   20.8830  -27.0080 H   0  0  0  0  0  0  0  0  0  0  0  0
   -0.0400   22.8640  -28.2430 H   0  0  0  0  0  0  0  0  0  0  0  0
   -3.9030   25.0840  -29.8510 H   0  0  0  0  0  0  0  0  0  0  0  0
   -4.7780   27.1520  -30.3810 H   0  0  0  0  0  0  0  0  0  0  0  0
   -7.3160   29.2030  -32.2340 H   0  0  0  0  0  0  0  0  0  0  0  0
   -7.0710   31.3120  -31.5420 H   0  0  0  0  0  0  0  0  0  0  0  0
   -6.1010   31.1540  -31.0240 C   0  0  0  0  0  0  0  0  0  0  0  0
   -4.9580   32.0320  -31.6180 C   0  0  0  0  0  0  0  0  0  0  0  0
   -4.8910   32.8480  -30.3050 C   0  0  0  0  0  0  0  0  0  0  0  0
   -6.0140   31.9680  -29.7020 C   0  0  0  0  0  0  0  0  0  0  0  0
   -4.0330   31.4800  -31.8530 H   0  0  0  0  0  0  0  0  0  0  0  0
   -5.2950   32.6230  -32.4880 H   0  0  0  0  0  0  0  0  0  0  0  0
   -3.9260   32.7780  -29.7710 H   0  0  0  0  0  0  0  0  0  0  0  0
   -5.1780   33.9110  -30.4210 H   0  0  0  0  0  0  0  0  0  0  0  0
   -5.6970   31.3940  -28.8160 H   0  0  0  0  0  0  0  0  0  0  0  0
   -6.9450   32.5260  -29.4910 H   0  0  0  0  0  0  0  0  0  0  0  0
  1  2  2  0  0  0  0
  1  5  1  0  0  0  0
  1  8  1  0  0  0  0
  2  3  1  0  0  0  0
  2 11  1  0  0  0  0
  3  9  2  0  0  0  0
  3 21  1  0  0  0  0
  4  6  1  0  0  0  0
  4 13  1  0  0  0  0
  4 16  2  0  0  0  0
  5 12  2  0  0  0  0
  5 13  1  0  0  0  0
  6  7  2  0  0  0  0
  6 22  1  0  0  0  0
  7 14  1  0  0  0  0
  7 23  1  0  0  0  0
  8 10  2  0  0  0  0
  8 20  1  0  0  0  0
  9 10  1  0  0  0  0
  9 24  1  0  0  0  0
 10 25  1  0  0  0  0
 13 26  1  0  0  0  0
 14 15  2  0  0  0  0
 15 16  1  0  0  0  0
 15 17  1  0  0  0  0
 16 27  1  0  0  0  0
 17 18  1  0  0  0  0
 17 28  1  0  0  0  0
 18 19  2  0  0  0  0
 18 30  1  0  0  0  0
 29 30  1  0  0  0  0
 30 31  1  0  0  0  0
 30 33  1  0  0  0  0
 31 32  1  0  0  0  0
 31 34  1  0  0  0  0
 31 35  1  0  0  0  0
 32 33  1  0  0  0  0
 32 36  1  0  0  0  0
 32 37  1  0  0  0  0
 33 38  1  0  0  0  0
 33 39  1  0  0  0  0
M  END
$$$$
