p38a_3fln
 OpenBabel02232411163D
Structure written by MMmdl.
 46 49  0  0  0  0  0  0  0  0999 V2000
   32.4440   39.6770   27.0550 C   0  0  0  0  0  0  0  0  0  0  0  0
   32.4150   39.0380   28.4490 C   0  0  0  0  0  0  0  0  0  0  0  0
   34.7800   38.5580   28.3850 C   0  0  0  0  0  0  0  0  0  0  0  0
   34.9260   39.1620   26.9830 C   0  0  0  0  0  0  0  0  0  0  0  0
   38.2860   36.5440   17.1510 C   0  0  0  0  0  0  0  0  0  0  0  0
   33.6910   39.1630   29.1180 O   0  0  0  0  0  0  0  0  0  0  0  0
   34.5860   35.0940   21.2060 C   0  0  0  0  0  0  0  0  0  0  0  0
   37.4870   36.0860   18.1950 C   0  0  0  0  0  0  0  0  0  0  0  0
   34.0370   39.1720   23.7490 C   0  0  0  0  0  0  0  0  0  0  0  0
   33.5860   39.0560   26.2220 C   0  0  0  0  0  0  0  0  0  0  0  0
   34.6490   37.9740   21.3420 C   0  0  0  0  0  0  0  0  0  0  0  0
   35.0200   37.3160   20.1190 C   0  0  0  0  0  0  0  0  0  0  0  0
   37.6570   36.7060   15.9100 C   0  0  0  0  0  0  0  0  0  0  0  0
   36.3120   36.4060   15.6820 C   0  0  0  0  0  0  0  0  0  0  0  0
   35.5330   35.9340   16.7440 C   0  0  0  0  0  0  0  0  0  0  0  0
   34.3440   37.2000   22.5020 C   0  0  0  0  0  0  0  0  0  0  0  0
   34.5910   39.3870   21.4790 C   0  0  0  0  0  0  0  0  0  0  0  0
   35.0220   35.9640   20.0810 C   0  0  0  0  0  0  0  0  0  0  0  0
   36.1260   35.7670   17.9980 C   0  0  0  0  0  0  0  0  0  0  0  0
   34.0060   35.0190   23.6620 C   0  0  0  0  0  0  0  0  0  0  0  0
   38.0020   35.9470   19.4100 F   0  0  0  0  0  0  0  0  0  0  0  0
   38.3670   37.2130   14.9050 F   0  0  0  0  0  0  0  0  0  0  0  0
   35.3840   35.1460   19.0110 O   0  0  0  0  0  0  0  0  0  0  0  0
   34.2990   39.9980   22.6370 N   0  0  0  0  0  0  0  0  0  0  0  0
   34.4450   33.8920   21.1540 O   0  0  0  0  0  0  0  0  0  0  0  0
   34.3220   35.7980   22.4320 N   0  0  0  0  0  0  0  0  0  0  0  0
   34.0600   37.7920   23.7060 N   0  0  0  0  0  0  0  0  0  0  0  0
   33.6710   39.7900   24.9230 N   0  0  0  0  0  0  0  0  0  0  0  0
   31.4670   39.5040   26.5430 H   0  0  0  0  0  0  0  0  0  0  0  0
   32.6000   40.7780   27.1520 H   0  0  0  0  0  0  0  0  0  0  0  0
   31.7330   39.5930   29.1340 H   0  0  0  0  0  0  0  0  0  0  0  0
   32.1410   37.9590   28.3870 H   0  0  0  0  0  0  0  0  0  0  0  0
   34.6090   37.4570   28.3270 H   0  0  0  0  0  0  0  0  0  0  0  0
   35.6600   38.8020   29.0240 H   0  0  0  0  0  0  0  0  0  0  0  0
   35.2310   40.2340   27.0620 H   0  0  0  0  0  0  0  0  0  0  0  0
   35.7210   38.6090   26.4280 H   0  0  0  0  0  0  0  0  0  0  0  0
   39.3390   36.8020   17.3010 H   0  0  0  0  0  0  0  0  0  0  0  0
   33.3490   37.9720   26.0230 H   0  0  0  0  0  0  0  0  0  0  0  0
   35.3010   37.9340   19.2640 H   0  0  0  0  0  0  0  0  0  0  0  0
   35.8560   36.5510   14.7010 H   0  0  0  0  0  0  0  0  0  0  0  0
   34.4720   35.7150   16.5880 H   0  0  0  0  0  0  0  0  0  0  0  0
   34.7870   40.0320   20.6060 H   0  0  0  0  0  0  0  0  0  0  0  0
   34.7350   35.2800   24.4780 H   0  0  0  0  0  0  0  0  0  0  0  0
   32.9710   35.2690   24.0230 H   0  0  0  0  0  0  0  0  0  0  0  0
   34.0660   33.9200   23.4530 H   0  0  0  0  0  0  0  0  0  0  0  0
   33.7560   40.8220   25.0070 H   0  0  0  0  0  0  0  0  0  0  0  0
  1  2  1  0  0  0  0
  1 10  1  0  0  0  0
  1 29  1  0  0  0  0
  1 30  1  0  0  0  0
  2  6  1  0  0  0  0
  2 31  1  0  0  0  0
  2 32  1  0  0  0  0
  3  4  1  0  0  0  0
  3  6  1  0  0  0  0
  3 33  1  0  0  0  0
  3 34  1  0  0  0  0
  4 10  1  0  0  0  0
  4 35  1  0  0  0  0
  4 36  1  0  0  0  0
  5  8  2  0  0  0  0
  5 13  1  0  0  0  0
  5 37  1  0  0  0  0
  7 18  1  0  0  0  0
  7 25  2  0  0  0  0
  7 26  1  0  0  0  0
  8 19  1  0  0  0  0
  8 21  1  0  0  0  0
  9 24  2  0  0  0  0
  9 27  1  0  0  0  0
  9 28  1  0  0  0  0
 10 28  1  0  0  0  0
 10 38  1  0  0  0  0
 11 12  1  0  0  0  0
 11 16  1  0  0  0  0
 11 17  2  0  0  0  0
 12 18  2  0  0  0  0
 12 39  1  0  0  0  0
 13 14  2  0  0  0  0
 13 22  1  0  0  0  0
 14 15  1  0  0  0  0
 14 40  1  0  0  0  0
 15 19  2  0  0  0  0
 15 41  1  0  0  0  0
 16 26  1  0  0  0  0
 16 27  2  0  0  0  0
 17 24  1  0  0  0  0
 17 42  1  0  0  0  0
 18 23  1  0  0  0  0
 19 23  1  0  0  0  0
 20 26  1  0  0  0  0
 20 43  1  0  0  0  0
 20 44  1  0  0  0  0
 20 45  1  0  0  0  0
 28 46  1  0  0  0  0
M  END
$$$$
