2v
                    3D
 Schrodinger Suite 2022-3.
 35 37  0  0  1  0  0  0  0  0999 V2000
   15.9890   10.5460   31.7020 C   0  0  0  0  0  0  0  0  0  0  0  0
   21.4060   12.5230   31.3150 C   0  0  0  0  0  0  0  0  0  0  0  0
   17.2870   11.0340   31.8200 C   0  0  0  0  0  0  0  0  0  0  0  0
   24.0020    8.4490   31.1190 C   0  0  0  0  0  0  0  0  0  0  0  0
   26.4180    8.4570   31.7470 C   0  0  0  0  0  0  0  0  0  0  0  0
   21.5730    9.6990   30.7720 C   0  0  0  0  0  0  0  0  0  0  0  0
   20.2980   10.3570   30.6950 C   0  0  0  0  0  0  0  0  0  0  0  0
   15.3050   10.8550   30.5200 C   0  0  0  0  0  0  0  0  0  0  0  0
   15.8600   11.6190   29.4920 C   0  0  0  0  0  0  0  0  0  0  0  0
   17.1610   12.1130   29.6400 C   0  0  0  0  0  0  0  0  0  0  0  0
   22.7250   10.4200   31.2040 C   0  0  0  0  0  0  0  0  0  0  0  0
   21.7580    8.3290   30.4460 C   0  0  0  0  0  0  0  0  0  0  0  0
   20.2280   11.6750   30.9890 C   0  0  0  0  0  0  0  0  0  0  0  0
   17.8680   11.8320   30.8130 C   0  0  0  0  0  0  0  0  0  0  0  0
   23.8650   12.5320   31.8850 C   0  0  0  0  0  0  0  0  0  0  0  0
   18.0040   10.7390   32.8970 F   0  0  0  0  0  0  0  0  0  0  0  0
   14.0740   10.3730   30.3630 F   0  0  0  0  0  0  0  0  0  0  0  0
   19.0910   12.4790   31.0230 O   0  0  0  0  0  0  0  0  0  0  0  0
   22.9280    7.6950   30.6050 N   0  0  0  0  0  0  0  0  0  0  0  0
   21.3970   13.7250   31.4620 O   0  0  0  0  0  0  0  0  0  0  0  0
   22.6390   11.7970   31.4660 N   0  0  0  0  0  0  0  0  0  0  0  0
   23.9420    9.8050   31.3680 N   0  0  0  0  0  0  0  0  0  0  0  0
   25.1460    7.7560   31.4540 N   0  0  0  0  0  0  0  0  0  0  0  0
   15.3030   11.8230   28.5750 H   0  0  0  0  0  0  0  0  0  0  0  0
   17.6150   12.7060   28.8400 H   0  0  0  0  0  0  0  0  0  0  0  0
   15.5420    9.9240   32.4790 H   0  0  0  0  0  0  0  0  0  0  0  0
   19.4280    9.7630   30.4060 H   0  0  0  0  0  0  0  0  0  0  0  0
   20.9180    7.7430   30.0370 H   0  0  0  0  0  0  0  0  0  0  0  0
   26.2620    9.2530   32.5220 H   0  0  0  0  0  0  0  0  0  0  0  0
   24.3500   12.0080   32.7530 H   0  0  0  0  0  0  0  0  0  0  0  0
   24.6030   12.5630   31.0370 H   0  0  0  0  0  0  0  0  0  0  0  0
   23.6060   13.5800   32.1860 H   0  0  0  0  0  0  0  0  0  0  0  0
   25.2740    6.7960   31.0760 H   0  0  0  0  0  0  0  0  0  0  0  0
   26.8590    8.9250   30.8300 H   0  0  0  0  0  0  0  0  0  0  0  0
   27.1380    7.6960   32.1530 H   0  0  0  0  0  0  0  0  0  0  0  0
  1  3  1  0  0  0  0
  1  8  2  0  0  0  0
  1 26  1  0  0  0  0
  2 13  1  0  0  0  0
  2 20  2  0  0  0  0
  2 21  1  0  0  0  0
  3 14  2  0  0  0  0
  3 16  1  0  0  0  0
  4 19  1  0  0  0  0
  4 22  2  0  0  0  0
  4 23  1  0  0  0  0
  5 23  1  0  0  0  0
  5 29  1  0  0  0  0
  5 34  1  0  0  0  0
  5 35  1  0  0  0  0
  6  7  1  0  0  0  0
  6 11  2  0  0  0  0
  6 12  1  0  0  0  0
  7 13  2  0  0  0  0
  7 27  1  0  0  0  0
  8  9  1  0  0  0  0
  8 17  1  0  0  0  0
  9 10  2  0  0  0  0
  9 24  1  0  0  0  0
 10 14  1  0  0  0  0
 10 25  1  0  0  0  0
 11 21  1  0  0  0  0
 11 22  1  0  0  0  0
 12 19  2  0  0  0  0
 12 28  1  0  0  0  0
 13 18  1  0  0  0  0
 14 18  1  0  0  0  0
 15 21  1  0  0  0  0
 15 30  1  0  0  0  0
 15 31  1  0  0  0  0
 15 32  1  0  0  0  0
 23 33  1  0  0  0  0
M  END
$$$$
