18638-1
 OpenBabel02232411163D
Structure written by MMmdl.
 52 53  0  0  0  0  0  0  0  0999 V2000
   23.3160   10.5930   29.0170 C   0  0  0  0  0  0  0  0  0  0  0  0
   23.6120   10.8680   30.4770 C   0  0  0  0  0  0  0  0  0  0  0  0
   22.3580   10.9970   31.2490 O   0  0  0  0  0  0  0  0  0  0  0  0
   21.6840    9.8820   31.6060 C   0  0  0  0  0  0  0  0  0  0  0  0
   22.1440    8.6710   31.2120 N   0  0  0  0  0  0  0  0  0  0  0  0
   21.3850    7.5620   31.5450 C   0  0  0  0  0  0  0  0  0  0  0  0
   20.2140    7.6470   32.2920 C   0  0  0  0  0  0  0  0  0  0  0  0
   19.7480    8.9190   32.7180 C   0  0  0  0  0  0  0  0  0  0  0  0
   18.5800    9.0050   33.4350 N   0  0  0  0  0  0  0  0  0  0  0  0
   20.4960   10.0890   32.3700 C   0  0  0  0  0  0  0  0  0  0  0  0
   20.1130   11.4040   32.7110 C   0  0  0  0  0  0  0  0  0  0  0  0
   19.8460   12.5060   32.9570 N   0  0  0  0  0  0  0  0  0  0  0  0
   21.9290    6.3660   31.0140 N   0  0  0  0  0  0  0  0  0  0  0  0
   21.2430    5.1380   30.9100 C   0  0  0  0  0  0  0  0  0  0  0  0
   20.1580    4.9500   31.4190 O   0  0  0  0  0  0  0  0  0  0  0  0
   21.9310    4.1110   30.0270 C   0  0  0  0  0  0  0  0  0  0  0  0
   23.3080    3.6930   30.4500 C   0  0  0  0  0  0  0  0  0  0  0  0
   24.4520    4.4050   29.9830 C   0  0  0  0  0  0  0  0  0  0  0  0
   24.1220    5.5400   29.2480 O   0  0  0  0  0  0  0  0  0  0  0  0
   25.1540    6.5540   29.1040 C   0  0  0  0  0  0  0  0  0  0  0  0
   25.7420    3.9330   30.2020 C   0  0  0  0  0  0  0  0  0  0  0  0
   25.9530    2.7620   30.9510 C   0  0  0  0  0  0  0  0  0  0  0  0
   27.5950    2.1560   31.0800 S   0  0  0  0  0  0  0  0  0  0  0  0
   28.5660    3.2710   30.9590 O   0  0  0  0  0  0  0  0  0  0  0  0
   27.7620    1.4560   32.3750 O   0  0  0  0  0  0  0  0  0  0  0  0
   27.7380    1.0630   29.7400 C   0  0  0  0  0  0  0  0  0  0  0  0
   24.8340    2.1110   31.4890 C   0  0  0  0  0  0  0  0  0  0  0  0
   23.5160    2.5600   31.2200 C   0  0  0  0  0  0  0  0  0  0  0  0
   25.1130    1.0440   32.3070 O   0  0  0  0  0  0  0  0  0  0  0  0
   24.0370    0.1070   32.5980 C   0  0  0  0  0  0  0  0  0  0  0  0
   22.9040    9.5670   28.8740 H   0  0  0  0  0  0  0  0  0  0  0  0
   22.5900   11.3290   28.6050 H   0  0  0  0  0  0  0  0  0  0  0  0
   24.2640   10.6730   28.4300 H   0  0  0  0  0  0  0  0  0  0  0  0
   24.0260   11.8920   30.6380 H   0  0  0  0  0  0  0  0  0  0  0  0
   24.2510   10.0780   30.9340 H   0  0  0  0  0  0  0  0  0  0  0  0
   19.6360    6.7540   32.5410 H   0  0  0  0  0  0  0  0  0  0  0  0
   18.0640    8.1510   33.7190 H   0  0  0  0  0  0  0  0  0  0  0  0
   18.2000    9.9050   33.7270 H   0  0  0  0  0  0  0  0  0  0  0  0
   22.8470    6.4610   30.5190 H   0  0  0  0  0  0  0  0  0  0  0  0
   21.2800    3.1990   29.9740 H   0  0  0  0  0  0  0  0  0  0  0  0
   21.9950    4.5620   28.9950 H   0  0  0  0  0  0  0  0  0  0  0  0
   24.5600    7.4300   28.7550 H   0  0  0  0  0  0  0  0  0  0  0  0
   25.6400    6.7620   30.0810 H   0  0  0  0  0  0  0  0  0  0  0  0
   25.8830    6.2200   28.3360 H   0  0  0  0  0  0  0  0  0  0  0  0
   26.5940    4.4700   29.7650 H   0  0  0  0  0  0  0  0  0  0  0  0
   27.6420    1.5920   28.7540 H   0  0  0  0  0  0  0  0  0  0  0  0
   28.7240    0.5310   29.7170 H   0  0  0  0  0  0  0  0  0  0  0  0
   26.9440    0.2710   29.7450 H   0  0  0  0  0  0  0  0  0  0  0  0
   22.6600    2.0020   31.6030 H   0  0  0  0  0  0  0  0  0  0  0  0
   23.6070   -0.2790   31.6480 H   0  0  0  0  0  0  0  0  0  0  0  0
   23.2750    0.5810   33.2520 H   0  0  0  0  0  0  0  0  0  0  0  0
   24.5830   -0.7010   33.1420 H   0  0  0  0  0  0  0  0  0  0  0  0
  1  2  1  0  0  0  0
  1 31  1  0  0  0  0
  1 32  1  0  0  0  0
  1 33  1  0  0  0  0
  2  3  1  0  0  0  0
  2 34  1  0  0  0  0
  2 35  1  0  0  0  0
  3  4  1  0  0  0  0
  4 10  2  0  0  0  0
  4  5  1  0  0  0  0
  5  6  2  0  0  0  0
  6  7  1  0  0  0  0
  6 13  1  0  0  0  0
  7  8  2  0  0  0  0
  7 36  1  0  0  0  0
  8  9  1  0  0  0  0
  8 10  1  0  0  0  0
  9 37  1  0  0  0  0
  9 38  1  0  0  0  0
 10 11  1  0  0  0  0
 11 12  3  0  0  0  0
 13 14  1  0  0  0  0
 13 39  1  0  0  0  0
 14 15  2  0  0  0  0
 14 16  1  0  0  0  0
 16 17  1  0  0  0  0
 16 40  1  0  0  0  0
 16 41  1  0  0  0  0
 17 28  2  0  0  0  0
 17 18  1  0  0  0  0
 18 19  1  0  0  0  0
 18 21  2  0  0  0  0
 19 20  1  0  0  0  0
 20 42  1  0  0  0  0
 20 43  1  0  0  0  0
 20 44  1  0  0  0  0
 21 22  1  0  0  0  0
 21 45  1  0  0  0  0
 22 23  1  0  0  0  0
 22 27  2  0  0  0  0
 23 24  2  0  0  0  0
 23 25  2  0  0  0  0
 23 26  1  0  0  0  0
 26 46  1  0  0  0  0
 26 47  1  0  0  0  0
 26 48  1  0  0  0  0
 27 28  1  0  0  0  0
 27 29  1  0  0  0  0
 28 49  1  0  0  0  0
 29 30  1  0  0  0  0
 30 50  1  0  0  0  0
 30 51  1  0  0  0  0
 30 52  1  0  0  0  0
M  END
$$$$
