p38a_2i
 OpenBabel02232411163D
Structure written by MMmdl.
 48 51  0  0  0  0  0  0  0  0999 V2000
   34.0520   38.6280   26.9930 C   0  0  0  0  0  0  0  0  0  0  0  0
   33.4540   38.1600   28.3260 C   0  0  0  0  0  0  0  0  0  0  0  0
   31.2010   38.2560   27.4560 C   0  0  0  0  0  0  0  0  0  0  0  0
   31.6890   38.7410   26.0840 C   0  0  0  0  0  0  0  0  0  0  0  0
   38.2590   36.2300   17.7260 C   0  0  0  0  0  0  0  0  0  0  0  0
   32.2020   37.4640   28.1340 O   0  0  0  0  0  0  0  0  0  0  0  0
   34.2920   35.2370   21.2880 C   0  0  0  0  0  0  0  0  0  0  0  0
   37.1490   35.8810   18.4970 C   0  0  0  0  0  0  0  0  0  0  0  0
   33.8640   39.3360   23.8250 C   0  0  0  0  0  0  0  0  0  0  0  0
   33.0200   39.5010   26.2540 C   0  0  0  0  0  0  0  0  0  0  0  0
   34.4070   38.0930   21.4240 C   0  0  0  0  0  0  0  0  0  0  0  0
   34.6180   37.4170   20.1780 C   0  0  0  0  0  0  0  0  0  0  0  0
   38.0810   36.4030   16.3510 C   0  0  0  0  0  0  0  0  0  0  0  0
   36.8180   36.2230   15.7810 C   0  0  0  0  0  0  0  0  0  0  0  0
   35.7200   35.8850   16.5780 C   0  0  0  0  0  0  0  0  0  0  0  0
   34.1080   37.3410   22.6000 C   0  0  0  0  0  0  0  0  0  0  0  0
   34.4540   39.5080   21.5530 C   0  0  0  0  0  0  0  0  0  0  0  0
   34.5390   36.0640   20.0980 C   0  0  0  0  0  0  0  0  0  0  0  0
   35.8580   35.7090   17.9630 C   0  0  0  0  0  0  0  0  0  0  0  0
   33.8340   35.1670   23.7820 C   0  0  0  0  0  0  0  0  0  0  0  0
   37.3380   35.6980   19.8040 F   0  0  0  0  0  0  0  0  0  0  0  0
   34.6570   35.3350   18.7890 C   0  0  0  0  0  0  0  0  0  0  0  0
   34.2100   40.1370   22.7070 N   0  0  0  0  0  0  0  0  0  0  0  0
   34.2450   34.0210   21.3270 O   0  0  0  0  0  0  0  0  0  0  0  0
   34.0900   35.9470   22.5390 N   0  0  0  0  0  0  0  0  0  0  0  0
   33.8320   37.9590   23.8010 N   0  0  0  0  0  0  0  0  0  0  0  0
   33.5470   40.0340   24.9630 N   0  0  0  0  0  0  0  0  0  0  0  0
   34.9790   39.2190   27.1900 H   0  0  0  0  0  0  0  0  0  0  0  0
   34.3260   37.7400   26.3720 H   0  0  0  0  0  0  0  0  0  0  0  0
   34.0910   37.3790   28.8030 H   0  0  0  0  0  0  0  0  0  0  0  0
   33.2880   39.0220   29.0150 H   0  0  0  0  0  0  0  0  0  0  0  0
   30.9190   39.1110   28.1100 H   0  0  0  0  0  0  0  0  0  0  0  0
   30.3600   37.5310   27.3520 H   0  0  0  0  0  0  0  0  0  0  0  0
   31.8310   37.8600   25.4110 H   0  0  0  0  0  0  0  0  0  0  0  0
   30.9220   39.4110   25.6300 H   0  0  0  0  0  0  0  0  0  0  0  0
   39.2420   36.4010   18.1690 H   0  0  0  0  0  0  0  0  0  0  0  0
   32.8260   40.4320   26.8710 H   0  0  0  0  0  0  0  0  0  0  0  0
   34.8360   38.0240   19.2940 H   0  0  0  0  0  0  0  0  0  0  0  0
   36.6760   36.3670   14.7100 H   0  0  0  0  0  0  0  0  0  0  0  0
   34.7400   35.7750   16.1040 H   0  0  0  0  0  0  0  0  0  0  0  0
   34.6870   40.1300   20.6730 H   0  0  0  0  0  0  0  0  0  0  0  0
   34.5810   35.4450   24.5720 H   0  0  0  0  0  0  0  0  0  0  0  0
   32.8040   35.3910   24.1690 H   0  0  0  0  0  0  0  0  0  0  0  0
   33.9160   34.0680   23.5690 H   0  0  0  0  0  0  0  0  0  0  0  0
   33.6690   41.0660   24.9650 H   0  0  0  0  0  0  0  0  0  0  0  0
   38.9230   36.7010   15.7310 H   0  0  0  0  0  0  0  0  0  0  0  0
   34.6800   34.2260   18.9660 H   0  0  0  0  0  0  0  0  0  0  0  0
   33.7210   35.5570   18.1990 H   0  0  0  0  0  0  0  0  0  0  0  0
  1  2  1  0  0  0  0
  1 10  1  0  0  0  0
  1 28  1  0  0  0  0
  1 29  1  0  0  0  0
  2  6  1  0  0  0  0
  2 30  1  0  0  0  0
  2 31  1  0  0  0  0
  3  4  1  0  0  0  0
  3  6  1  0  0  0  0
  3 32  1  0  0  0  0
  3 33  1  0  0  0  0
  4 10  1  0  0  0  0
  4 34  1  0  0  0  0
  4 35  1  0  0  0  0
  5  8  2  0  0  0  0
  5 13  1  0  0  0  0
  5 36  1  0  0  0  0
  7 18  1  0  0  0  0
  7 24  2  0  0  0  0
  7 25  1  0  0  0  0
  8 19  1  0  0  0  0
  8 21  1  0  0  0  0
  9 23  2  0  0  0  0
  9 26  1  0  0  0  0
  9 27  1  0  0  0  0
 10 27  1  0  0  0  0
 10 37  1  0  0  0  0
 11 12  1  0  0  0  0
 11 16  1  0  0  0  0
 11 17  2  0  0  0  0
 12 18  2  0  0  0  0
 12 38  1  0  0  0  0
 13 14  2  0  0  0  0
 13 46  1  0  0  0  0
 14 15  1  0  0  0  0
 14 39  1  0  0  0  0
 15 19  2  0  0  0  0
 15 40  1  0  0  0  0
 16 25  1  0  0  0  0
 16 26  2  0  0  0  0
 17 23  1  0  0  0  0
 17 41  1  0  0  0  0
 18 22  1  0  0  0  0
 19 22  1  0  0  0  0
 20 25  1  0  0  0  0
 20 42  1  0  0  0  0
 20 43  1  0  0  0  0
 20 44  1  0  0  0  0
 22 47  1  0  0  0  0
 22 48  1  0  0  0  0
 27 45  1  0  0  0  0
M  END
$$$$
