3a
                    3D
 Schrodinger Suite 2022-3.
 55 57  0  0  1  0  0  0  0  0999 V2000
   16.3250  -16.0030   23.0020 N   0  3  0  0  0  0  0  0  0  0  0  0
   17.6420  -15.2080   23.0470 C   0  0  1  0  0  0  0  0  0  0  0  0
   17.3790  -13.7960   22.4520 C   0  0  0  0  0  0  0  0  0  0  0  0
   16.3860  -13.1460   22.7720 O   0  0  0  0  0  0  0  0  0  0  0  0
   18.1220  -15.1270   24.5100 C   0  0  0  0  0  0  0  0  0  0  0  0
   19.5620  -14.6850   24.6200 C   0  0  0  0  0  0  0  0  0  0  0  0
   20.5930  -15.5000   24.1260 C   0  0  0  0  0  0  0  0  0  0  0  0
   19.8840  -13.4830   25.2610 C   0  0  0  0  0  0  0  0  0  0  0  0
   21.9240  -15.1010   24.2550 C   0  0  0  0  0  0  0  0  0  0  0  0
   21.2180  -13.0770   25.3760 C   0  0  0  0  0  0  0  0  0  0  0  0
   22.2420  -13.8850   24.8750 C   0  0  0  0  0  0  0  0  0  0  0  0
   18.2940  -13.3020   21.5600 N   0  0  0  0  0  0  0  0  0  0  0  0
   18.1360  -11.9490   20.9370 C   0  0  2  0  0  0  0  0  0  0  0  0
   16.7200  -11.7800   20.3210 C   0  0  0  0  0  0  0  0  0  0  0  0
   16.2030  -12.6210   19.6030 O   0  0  0  0  0  0  0  0  0  0  0  0
   19.2200  -11.8880   19.8410 C   0  0  0  0  0  0  0  0  0  0  0  0
   20.2440  -12.9890   20.1680 C   0  0  0  0  0  0  0  0  0  0  0  0
   19.5190  -14.0060   21.0670 C   0  0  0  0  0  0  0  0  0  0  0  0
   16.1550  -10.5270   20.5290 N   0  0  0  0  0  0  0  0  0  0  0  0
   14.7710  -10.2130   20.0840 C   0  0  0  0  0  0  0  0  0  0  0  0
   13.6940  -10.7370   21.0060 C   0  0  0  0  0  0  0  0  0  0  0  0
   13.2440   -9.9450   22.0710 C   0  0  0  0  0  0  0  0  0  0  0  0
   12.1920  -10.3910   22.8870 C   0  0  0  0  0  0  0  0  0  0  0  0
   11.6100  -11.6450   22.6340 C   0  0  0  0  0  0  0  0  0  0  0  0
   12.0810  -12.4430   21.5920 C   0  0  0  0  0  0  0  0  0  0  0  0
   13.1130  -11.9890   20.7660 C   0  0  0  0  0  0  0  0  0  0  0  0
   13.7080   -8.9790   22.2650 H   0  0  0  0  0  0  0  0  0  0  0  0
   11.7050   -9.5640   24.0330 C   0  0  0  0  0  0  0  0  0  0  0  0
   10.7840  -12.0040   23.2530 H   0  0  0  0  0  0  0  0  0  0  0  0
   11.6400  -13.4290   21.4250 H   0  0  0  0  0  0  0  0  0  0  0  0
   13.4540  -12.6150   19.9390 H   0  0  0  0  0  0  0  0  0  0  0  0
   19.0960  -12.8720   25.6920 H   0  0  0  0  0  0  0  0  0  0  0  0
   21.4350  -12.1230   25.8610 H   0  0  0  0  0  0  0  0  0  0  0  0
   22.7140  -15.7520   23.8690 H   0  0  0  0  0  0  0  0  0  0  0  0
   23.2880  -13.5820   24.9680 H   0  0  0  0  0  0  0  0  0  0  0  0
   20.3530  -16.4530   23.6460 H   0  0  0  0  0  0  0  0  0  0  0  0
   15.5720  -15.4930   23.5660 H   0  0  0  0  0  0  0  0  0  0  0  0
   16.0030  -16.1290   22.0020 H   0  0  0  0  0  0  0  0  0  0  0  0
   16.4860  -16.9680   23.4150 H   0  0  0  0  0  0  0  0  0  0  0  0
   18.3820  -15.8100   22.4430 H   0  0  0  0  0  0  0  0  0  0  0  0
   18.0500  -16.1520   24.9730 H   0  0  0  0  0  0  0  0  0  0  0  0
   17.4530  -14.4420   25.0890 H   0  0  0  0  0  0  0  0  0  0  0  0
   18.3350  -11.1820   21.7340 H   0  0  0  0  0  0  0  0  0  0  0  0
   19.7170  -10.8980   19.8490 H   0  0  0  0  0  0  0  0  0  0  0  0
   18.7820  -12.0880   18.8330 H   0  0  0  0  0  0  0  0  0  0  0  0
   21.1240  -12.5670   20.7060 H   0  0  0  0  0  0  0  0  0  0  0  0
   20.6030  -13.4900   19.2370 H   0  0  0  0  0  0  0  0  0  0  0  0
   19.2270  -14.9150   20.4800 H   0  0  0  0  0  0  0  0  0  0  0  0
   20.1660  -14.3020   21.9320 H   0  0  0  0  0  0  0  0  0  0  0  0
   16.5300   -9.9100   21.2720 H   0  0  0  0  0  0  0  0  0  0  0  0
   14.6260  -10.6370   19.0500 H   0  0  0  0  0  0  0  0  0  0  0  0
   14.6980   -9.0910   20.0140 H   0  0  0  0  0  0  0  0  0  0  0  0
   10.5920   -9.6340   24.1250 H   0  0  0  0  0  0  0  0  0  0  0  0
   12.1430   -9.9590   24.9780 H   0  0  0  0  0  0  0  0  0  0  0  0
   11.9940   -8.4950   23.9310 H   0  0  0  0  0  0  0  0  0  0  0  0
  1  2  1  0  0  0  0
  1 37  1  0  0  0  0
  1 38  1  0  0  0  0
  1 39  1  0  0  0  0
  2  3  1  0  0  0  0
  2  5  1  0  0  0  0
  2 40  1  0  0  0  0
  3  4  2  0  0  0  0
  3 12  1  0  0  0  0
  5  6  1  0  0  0  0
  5 41  1  0  0  0  0
  5 42  1  0  0  0  0
  6  7  2  0  0  0  0
  6  8  1  0  0  0  0
  7  9  1  0  0  0  0
  7 36  1  0  0  0  0
  8 10  2  0  0  0  0
  8 32  1  0  0  0  0
  9 11  2  0  0  0  0
  9 34  1  0  0  0  0
 10 11  1  0  0  0  0
 10 33  1  0  0  0  0
 11 35  1  0  0  0  0
 12 13  1  0  0  0  0
 12 18  1  0  0  0  0
 13 14  1  0  0  0  0
 13 16  1  0  0  0  0
 13 43  1  0  0  0  0
 14 15  2  0  0  0  0
 14 19  1  0  0  0  0
 16 17  1  0  0  0  0
 16 44  1  0  0  0  0
 16 45  1  0  0  0  0
 17 18  1  0  0  0  0
 17 46  1  0  0  0  0
 17 47  1  0  0  0  0
 18 48  1  0  0  0  0
 18 49  1  0  0  0  0
 19 20  1  0  0  0  0
 19 50  1  0  0  0  0
 20 21  1  0  0  0  0
 20 51  1  0  0  0  0
 20 52  1  0  0  0  0
 21 22  2  0  0  0  0
 21 26  1  0  0  0  0
 22 23  1  0  0  0  0
 22 27  1  0  0  0  0
 23 24  2  0  0  0  0
 23 28  1  0  0  0  0
 24 25  1  0  0  0  0
 24 29  1  0  0  0  0
 25 26  2  0  0  0  0
 25 30  1  0  0  0  0
 26 31  1  0  0  0  0
 28 53  1  0  0  0  0
 28 54  1  0  0  0  0
 28 55  1  0  0  0  0
M  CHG  1   1   1
M  END
$$$$
