23476
 OpenBabel02232411173D
Structure written by MMmdl.
 48 50  0  0  0  0  0  0  0  0999 V2000
   42.7290   17.8720   12.4280 O   0  0  0  0  0  0  0  0  0  0  0  0
   41.6010   17.5540   12.8280 C   0  0  0  0  0  0  0  0  0  0  0  0
   40.6080   18.3080   12.9060 O   0  5  0  0  0  0  0  0  0  0  0  0
   41.3630   16.0640   13.2260 C   0  0  0  0  0  0  0  0  0  0  0  0
   42.7160   15.6100   13.5600 O   0  0  0  0  0  0  0  0  0  0  0  0
   42.8120   14.8460   14.6760 C   0  0  0  0  0  0  0  0  0  0  0  0
   42.1890   13.5520   14.8460 C   0  0  0  0  0  0  0  0  0  0  0  0
   40.9240   12.8800   13.5840 Br  0  0  0  0  0  0  0  0  0  0  0  0
   42.5870   12.8700   15.9660 C   0  0  0  0  0  0  0  0  0  0  0  0
   42.1940   11.5480   16.4110 C   0  0  0  0  0  0  0  0  0  0  0  0
   43.1150   10.6540   17.0030 C   0  0  0  0  0  0  0  0  0  0  0  0
   42.7180    9.3550   17.3040 C   0  0  0  0  0  0  0  0  0  0  0  0
   41.4360    8.8860   16.9870 C   0  0  0  0  0  0  0  0  0  0  0  0
   40.5160    9.7660   16.3960 C   0  0  0  0  0  0  0  0  0  0  0  0
   39.1760    9.3940   16.0550 N   0  0  0  0  0  0  0  0  0  0  0  0
   38.9120    7.9800   15.6260 C   0  0  0  0  0  0  0  0  0  0  0  0
   38.1040    7.3010   16.7600 C   0  0  0  0  0  0  0  0  0  0  0  0
   38.1280    5.7680   16.6810 C   0  0  0  0  0  0  0  0  0  0  0  0
   37.5840    5.1880   15.3650 C   0  0  0  0  0  0  0  0  0  0  0  0
   38.5440    5.3840   14.1820 C   0  0  0  0  0  0  0  0  0  0  0  0
   38.3840    6.7140   13.4270 C   0  0  0  0  0  0  0  0  0  0  0  0
   38.1350    7.9650   14.2850 C   0  0  0  0  0  0  0  0  0  0  0  0
   40.8810   11.1150   16.1890 C   0  0  0  0  0  0  0  0  0  0  0  0
   43.7610   13.8430   16.8190 S   0  0  0  0  0  0  0  0  0  0  0  0
   43.6590   15.1770   15.7040 C   0  0  0  0  0  0  0  0  0  0  0  0
   44.4440   16.4640   15.9480 C   0  0  0  0  0  0  0  0  0  0  0  0
   45.5680   16.3030   16.4730 O   0  0  0  0  0  0  0  0  0  0  0  0
   43.9550   17.5380   15.6040 O   0  5  0  0  0  0  0  0  0  0  0  0
   41.0350   15.4560   12.3580 H   0  0  0  0  0  0  0  0  0  0  0  0
   40.6570   15.9440   14.0750 H   0  0  0  0  0  0  0  0  0  0  0  0
   44.1400   10.9560   17.2200 H   0  0  0  0  0  0  0  0  0  0  0  0
   43.4170    8.6660   17.7860 H   0  0  0  0  0  0  0  0  0  0  0  0
   41.1760    7.8530   17.2060 H   0  0  0  0  0  0  0  0  0  0  0  0
   38.7290   10.0670   15.4030 H   0  0  0  0  0  0  0  0  0  0  0  0
   39.8770    7.4220   15.4830 H   0  0  0  0  0  0  0  0  0  0  0  0
   38.5440    7.5980   17.7450 H   0  0  0  0  0  0  0  0  0  0  0  0
   37.0480    7.6550   16.7360 H   0  0  0  0  0  0  0  0  0  0  0  0
   39.1760    5.4090   16.8310 H   0  0  0  0  0  0  0  0  0  0  0  0
   37.5080    5.3670   17.5210 H   0  0  0  0  0  0  0  0  0  0  0  0
   37.4240    4.0910   15.5110 H   0  0  0  0  0  0  0  0  0  0  0  0
   36.5940    5.6450   15.1310 H   0  0  0  0  0  0  0  0  0  0  0  0
   39.5970    5.2990   14.5490 H   0  0  0  0  0  0  0  0  0  0  0  0
   38.3780    4.5540   13.4510 H   0  0  0  0  0  0  0  0  0  0  0  0
   39.3170    6.8680   12.8300 H   0  0  0  0  0  0  0  0  0  0  0  0
   37.5270    6.6130   12.7190 H   0  0  0  0  0  0  0  0  0  0  0  0
   37.0430    8.0480   14.4940 H   0  0  0  0  0  0  0  0  0  0  0  0
   38.4300    8.8490   13.6650 H   0  0  0  0  0  0  0  0  0  0  0  0
   40.1110   11.8090   15.8430 H   0  0  0  0  0  0  0  0  0  0  0  0
  1  2  2  0  0  0  0
  2  3  1  0  0  0  0
  2  4  1  0  0  0  0
  4  5  1  0  0  0  0
  4 29  1  0  0  0  0
  4 30  1  0  0  0  0
  5  6  1  0  0  0  0
  6 25  2  0  0  0  0
  6  7  1  0  0  0  0
  7  8  1  0  0  0  0
  7  9  2  0  0  0  0
  9 10  1  0  0  0  0
  9 24  1  0  0  0  0
 10 23  2  0  0  0  0
 10 11  1  0  0  0  0
 11 12  2  0  0  0  0
 11 31  1  0  0  0  0
 12 13  1  0  0  0  0
 12 32  1  0  0  0  0
 13 14  2  0  0  0  0
 13 33  1  0  0  0  0
 14 15  1  0  0  0  0
 14 23  1  0  0  0  0
 15 16  1  0  0  0  0
 15 34  1  0  0  0  0
 16 22  1  0  0  0  0
 16 17  1  0  0  0  0
 16 35  1  0  0  0  0
 17 18  1  0  0  0  0
 17 36  1  0  0  0  0
 17 37  1  0  0  0  0
 18 19  1  0  0  0  0
 18 38  1  0  0  0  0
 18 39  1  0  0  0  0
 19 20  1  0  0  0  0
 19 40  1  0  0  0  0
 19 41  1  0  0  0  0
 20 21  1  0  0  0  0
 20 42  1  0  0  0  0
 20 43  1  0  0  0  0
 21 22  1  0  0  0  0
 21 44  1  0  0  0  0
 21 45  1  0  0  0  0
 22 46  1  0  0  0  0
 22 47  1  0  0  0  0
 23 48  1  0  0  0  0
 24 25  1  0  0  0  0
 25 26  1  0  0  0  0
 26 27  2  0  0  0  0
 26 28  1  0  0  0  0
M  CHG  2   3  -1  28  -1
M  END
$$$$
