p38a_2m
 OpenBabel02232411163D
Structure written by MMmdl.
 50 54  0  0  0  0  0  0  0  0999 V2000
   38.2890   36.5750   17.1300 C   0  0  0  0  0  0  0  0  0  0  0  0
   34.5350   35.1190   21.1830 C   0  0  0  0  0  0  0  0  0  0  0  0
   37.5000   36.1210   18.1840 C   0  0  0  0  0  0  0  0  0  0  0  0
   33.9310   39.1770   23.7540 C   0  0  0  0  0  0  0  0  0  0  0  0
   34.6220   37.9930   21.3610 C   0  0  0  0  0  0  0  0  0  0  0  0
   35.0360   37.3540   20.1420 C   0  0  0  0  0  0  0  0  0  0  0  0
   37.6430   36.7480   15.8980 C   0  0  0  0  0  0  0  0  0  0  0  0
   36.2910   36.4660   15.6900 C   0  0  0  0  0  0  0  0  0  0  0  0
   35.5230   35.9970   16.7610 C   0  0  0  0  0  0  0  0  0  0  0  0
   34.2390   37.2090   22.4880 C   0  0  0  0  0  0  0  0  0  0  0  0
   34.5950   39.4060   21.5190 C   0  0  0  0  0  0  0  0  0  0  0  0
   35.0220   36.0050   20.0880 C   0  0  0  0  0  0  0  0  0  0  0  0
   36.1340   35.8170   18.0050 C   0  0  0  0  0  0  0  0  0  0  0  0
   38.0290   35.9720   19.3910 F   0  0  0  0  0  0  0  0  0  0  0  0
   35.4090   35.1890   19.0260 O   0  0  0  0  0  0  0  0  0  0  0  0
   34.2720   40.0110   22.6710 N   0  0  0  0  0  0  0  0  0  0  0  0
   34.4230   33.9190   21.0770 O   0  0  0  0  0  0  0  0  0  0  0  0
   34.1980   35.7980   22.4090 N   0  0  0  0  0  0  0  0  0  0  0  0
   33.9070   37.7970   23.6800 N   0  0  0  0  0  0  0  0  0  0  0  0
   33.5400   39.7760   24.9300 N   0  0  0  0  0  0  0  0  0  0  0  0
   39.3460   36.8210   17.2660 H   0  0  0  0  0  0  0  0  0  0  0  0
   35.3570   37.9830   19.3090 H   0  0  0  0  0  0  0  0  0  0  0  0
   35.8220   36.6200   14.7150 H   0  0  0  0  0  0  0  0  0  0  0  0
   34.4570   35.7890   16.6190 H   0  0  0  0  0  0  0  0  0  0  0  0
   34.8470   40.0550   20.6640 H   0  0  0  0  0  0  0  0  0  0  0  0
   33.6740   40.7980   25.0540 H   0  0  0  0  0  0  0  0  0  0  0  0
   38.3470   37.2430   14.8830 F   0  0  0  0  0  0  0  0  0  0  0  0
   32.1050   39.0210   28.3880 C   0  0  0  0  0  0  0  0  0  0  0  0
   32.2720   39.7380   27.0420 C   0  0  0  0  0  0  0  0  0  0  0  0
   33.3200   38.9960   26.1860 C   0  0  0  0  0  0  0  0  0  0  0  0
   34.6420   38.8390   26.9700 C   0  0  0  0  0  0  0  0  0  0  0  0
   34.3640   38.1700   28.3220 C   0  0  0  0  0  0  0  0  0  0  0  0
   33.3670   38.8930   29.0810 O   0  0  0  0  0  0  0  0  0  0  0  0
   31.6620   38.0070   28.2470 H   0  0  0  0  0  0  0  0  0  0  0  0
   31.5050   39.6320   29.1000 H   0  0  0  0  0  0  0  0  0  0  0  0
   32.5970   40.7900   27.2170 H   0  0  0  0  0  0  0  0  0  0  0  0
   31.2950   39.7560   26.5020 H   0  0  0  0  0  0  0  0  0  0  0  0
   32.9190   37.9780   25.9160 H   0  0  0  0  0  0  0  0  0  0  0  0
   35.3540   38.2030   26.3900 H   0  0  0  0  0  0  0  0  0  0  0  0
   35.1110   39.8390   27.1280 H   0  0  0  0  0  0  0  0  0  0  0  0
   34.0180   37.1190   28.1820 H   0  0  0  0  0  0  0  0  0  0  0  0
   35.2540   38.2220   28.9900 H   0  0  0  0  0  0  0  0  0  0  0  0
   33.7540   35.0560   23.6090 C   0  0  0  0  0  0  0  0  0  0  0  0
   34.0520   33.5790   23.8140 C   0  0  0  0  0  0  0  0  0  0  0  0
   32.6310   34.0300   23.5200 C   0  0  0  0  0  0  0  0  0  0  0  0
   33.7850   35.6910   24.5240 H   0  0  0  0  0  0  0  0  0  0  0  0
   34.6030   33.0020   23.0640 H   0  0  0  0  0  0  0  0  0  0  0  0
   34.2960   33.2580   24.8400 H   0  0  0  0  0  0  0  0  0  0  0  0
   32.1680   33.7810   22.5590 H   0  0  0  0  0  0  0  0  0  0  0  0
   31.8940   34.0190   24.3400 H   0  0  0  0  0  0  0  0  0  0  0  0
  1  3  2  0  0  0  0
  1  7  1  0  0  0  0
  1 21  1  0  0  0  0
  2 12  1  0  0  0  0
  2 17  2  0  0  0  0
  2 18  1  0  0  0  0
  3 13  1  0  0  0  0
  3 14  1  0  0  0  0
  4 16  2  0  0  0  0
  4 19  1  0  0  0  0
  4 20  1  0  0  0  0
  5  6  1  0  0  0  0
  5 10  1  0  0  0  0
  5 11  2  0  0  0  0
  6 12  2  0  0  0  0
  6 22  1  0  0  0  0
  7  8  2  0  0  0  0
  7 27  1  0  0  0  0
  8  9  1  0  0  0  0
  8 23  1  0  0  0  0
  9 13  2  0  0  0  0
  9 24  1  0  0  0  0
 10 18  1  0  0  0  0
 10 19  2  0  0  0  0
 11 16  1  0  0  0  0
 11 25  1  0  0  0  0
 12 15  1  0  0  0  0
 13 15  1  0  0  0  0
 18 43  1  0  0  0  0
 20 26  1  0  0  0  0
 20 30  1  0  0  0  0
 28 29  1  0  0  0  0
 28 33  1  0  0  0  0
 28 34  1  0  0  0  0
 28 35  1  0  0  0  0
 29 30  1  0  0  0  0
 29 36  1  0  0  0  0
 29 37  1  0  0  0  0
 30 31  1  0  0  0  0
 30 38  1  0  0  0  0
 31 32  1  0  0  0  0
 31 39  1  0  0  0  0
 31 40  1  0  0  0  0
 32 33  1  0  0  0  0
 32 41  1  0  0  0  0
 32 42  1  0  0  0  0
 43 44  1  0  0  0  0
 43 45  1  0  0  0  0
 43 46  1  0  0  0  0
 44 45  1  0  0  0  0
 44 47  1  0  0  0  0
 44 48  1  0  0  0  0
 45 49  1  0  0  0  0
 45 50  1  0  0  0  0
M  END
$$$$
