p38a_2s
 OpenBabel02232411163D
Structure written by MMmdl.
 54 57  0  0  1  0  0  0  0  0999 V2000
   38.2370   36.5030   17.1800 C   0  0  0  0  0  0  0  0  0  0  0  0
   34.6520   35.0700   21.2630 C   0  0  0  0  0  0  0  0  0  0  0  0
   37.4220   36.0510   18.2140 C   0  0  0  0  0  0  0  0  0  0  0  0
   34.2590   39.1260   23.8760 C   0  0  0  0  0  0  0  0  0  0  0  0
   34.7360   37.9380   21.4300 C   0  0  0  0  0  0  0  0  0  0  0  0
   35.0210   37.2990   20.1750 C   0  0  0  0  0  0  0  0  0  0  0  0
   37.6210   36.6830   15.9340 C   0  0  0  0  0  0  0  0  0  0  0  0
   36.2720   36.4090   15.6960 C   0  0  0  0  0  0  0  0  0  0  0  0
   35.4760   35.9450   16.7490 C   0  0  0  0  0  0  0  0  0  0  0  0
   34.5260   37.1590   22.6050 C   0  0  0  0  0  0  0  0  0  0  0  0
   34.6700   39.3510   21.5720 C   0  0  0  0  0  0  0  0  0  0  0  0
   35.0100   35.9480   20.1180 C   0  0  0  0  0  0  0  0  0  0  0  0
   36.0560   35.7600   18.0070 C   0  0  0  0  0  0  0  0  0  0  0  0
   37.9280   35.8930   19.4310 F   0  0  0  0  0  0  0  0  0  0  0  0
   35.2870   35.1500   19.0080 O   0  0  0  0  0  0  0  0  0  0  0  0
   34.4390   39.9520   22.7460 N   0  0  0  0  0  0  0  0  0  0  0  0
   34.4500   33.8790   21.2070 O   0  0  0  0  0  0  0  0  0  0  0  0
   34.5690   35.7550   22.5330 N   0  0  0  0  0  0  0  0  0  0  0  0
   34.2700   37.7490   23.8230 N   0  0  0  0  0  0  0  0  0  0  0  0
   34.1280   39.7870   25.0800 N   0  0  0  0  0  0  0  0  0  0  0  0
   39.2930   36.7430   17.3390 H   0  0  0  0  0  0  0  0  0  0  0  0
   35.2480   37.9300   19.3120 H   0  0  0  0  0  0  0  0  0  0  0  0
   35.8280   36.5680   14.7110 H   0  0  0  0  0  0  0  0  0  0  0  0
   34.4130   35.7470   16.5820 H   0  0  0  0  0  0  0  0  0  0  0  0
   34.7990   40.0020   20.6900 H   0  0  0  0  0  0  0  0  0  0  0  0
   34.0480   40.8290   25.0380 H   0  0  0  0  0  0  0  0  0  0  0  0
   38.3490   37.1810   14.9380 F   0  0  0  0  0  0  0  0  0  0  0  0
   33.5360   37.4840   28.1260 C   0  0  0  0  0  0  0  0  0  0  0  0
   34.2240   37.9720   26.8440 C   0  0  0  0  0  0  0  0  0  0  0  0
   33.5270   39.2440   26.3360 C   0  0  0  0  0  0  0  0  0  0  0  0
   32.0060   39.0190   26.1780 C   0  0  0  0  0  0  0  0  0  0  0  0
   31.4290   38.4760   27.4910 C   0  0  0  0  0  0  0  0  0  0  0  0
   32.1190   37.2810   27.9200 O   0  0  0  0  0  0  0  0  0  0  0  0
   33.6840   38.2070   28.9610 H   0  0  0  0  0  0  0  0  0  0  0  0
   33.8870   36.4630   28.4040 H   0  0  0  0  0  0  0  0  0  0  0  0
   34.1790   37.1640   26.0770 H   0  0  0  0  0  0  0  0  0  0  0  0
   35.2990   38.1930   27.0530 H   0  0  0  0  0  0  0  0  0  0  0  0
   33.6950   40.0700   27.0930 H   0  0  0  0  0  0  0  0  0  0  0  0
   31.5100   39.9860   25.9230 H   0  0  0  0  0  0  0  0  0  0  0  0
   31.8100   38.2970   25.3540 H   0  0  0  0  0  0  0  0  0  0  0  0
   31.4970   39.2390   28.3000 H   0  0  0  0  0  0  0  0  0  0  0  0
   30.3870   38.1080   27.3570 H   0  0  0  0  0  0  0  0  0  0  0  0
   34.5170   34.9340   23.7780 C   0  0  0  0  0  0  0  0  0  0  0  0
   35.1310   34.0030   23.6180 H   0  0  0  0  0  0  0  0  0  0  0  0
   34.9890   35.5190   24.6180 H   0  0  0  0  0  0  0  0  0  0  0  0
   33.0800   34.5100   24.1680 C   0  0  2  0  0  0  0  0  0  0  0  0
   32.1910   35.6200   24.2750 O   0  0  0  0  0  0  0  0  0  0  0  0
   32.6740   36.4060   24.6320 H   0  0  0  0  0  0  0  0  0  0  0  0
   33.0780   33.7400   25.5140 C   0  0  0  0  0  0  0  0  0  0  0  0
   32.2510   34.1180   26.1650 H   0  0  0  0  0  0  0  0  0  0  0  0
   34.0510   33.7880   26.0530 H   0  0  0  0  0  0  0  0  0  0  0  0
   32.6070   33.8790   23.3730 H   0  0  0  0  0  0  0  0  0  0  0  0
   32.7220   32.3720   25.2640 O   0  0  0  0  0  0  0  0  0  0  0  0
   33.5710   31.8700   25.0080 H   0  0  0  0  0  0  0  0  0  0  0  0
  1  3  2  0  0  0  0
  1  7  1  0  0  0  0
  1 21  1  0  0  0  0
  2 12  1  0  0  0  0
  2 17  2  0  0  0  0
  2 18  1  0  0  0  0
  3 13  1  0  0  0  0
  3 14  1  0  0  0  0
  4 16  2  0  0  0  0
  4 19  1  0  0  0  0
  4 20  1  0  0  0  0
  5  6  1  0  0  0  0
  5 10  1  0  0  0  0
  5 11  2  0  0  0  0
  6 12  2  0  0  0  0
  6 22  1  0  0  0  0
  7  8  2  0  0  0  0
  7 27  1  0  0  0  0
  8  9  1  0  0  0  0
  8 23  1  0  0  0  0
  9 13  2  0  0  0  0
  9 24  1  0  0  0  0
 10 18  1  0  0  0  0
 10 19  2  0  0  0  0
 11 16  1  0  0  0  0
 11 25  1  0  0  0  0
 12 15  1  0  0  0  0
 13 15  1  0  0  0  0
 18 43  1  0  0  0  0
 20 26  1  0  0  0  0
 20 30  1  0  0  0  0
 28 29  1  0  0  0  0
 28 33  1  0  0  0  0
 28 34  1  0  0  0  0
 28 35  1  0  0  0  0
 29 30  1  0  0  0  0
 29 36  1  0  0  0  0
 29 37  1  0  0  0  0
 30 31  1  0  0  0  0
 30 38  1  0  0  0  0
 31 32  1  0  0  0  0
 31 39  1  0  0  0  0
 31 40  1  0  0  0  0
 32 33  1  0  0  0  0
 32 41  1  0  0  0  0
 32 42  1  0  0  0  0
 43 44  1  0  0  0  0
 43 45  1  0  0  0  0
 43 46  1  0  0  0  0
 46 47  1  0  0  0  0
 46 49  1  0  0  0  0
 46 52  1  1  0  0  0
 47 48  1  0  0  0  0
 49 50  1  0  0  0  0
 49 51  1  0  0  0  0
 49 53  1  0  0  0  0
 53 54  1  0  0  0  0
M  END
$$$$
